/*---------------------------------------------------------------------------*\
| =========                 |                                                 |
| \\      /  F ield         | OpenFOAM Extend Project: Open source CFD        |
|  \\    /   O peration     | Version:  1.6-ext                               |
|   \\  /    A nd           | Web:      www.extend-project.de                 |
|    \\/     M anipulation  |                                                 |
\*---------------------------------------------------------------------------*/
Build  : 1.6-ext-62b0c9cdf665
Exec   : chipAirCoolingSimpleFoam
Date   : Oct 21 2011
Time   : 15:24:49
Host   : galerius
PID    : 3324
Case   : /home/henrus/projects/ChipAirCooling/run/tutorial1_fineSolid/conjugateContactCavity
nProcs : 1
SigFpe : Enabling floating point exception trapping (FOAM_SIGFPE).

// * * * * * * * * * * * * * * * * * * * * * * * * * * * * * * * * * * * * * //
Create time

Create mesh for time = 0


    From function void polyMesh::initMesh()
    in file meshes/polyMesh/polyMeshInitMesh.C at line 82
    Truncating neighbour list at 180 for backward compatibility

Reading g
Reading transportProperties

Calculating field g.h

Reading field p_rgh

Reading field U

Reading field T

Reading/calculating face flux field phi

Selecting incompressible transport model Newtonian
Selecting RAS turbulence model kEpsilon
kEpsilonCoeffs
{
    Cmu             0.09;
    C1              1.44;
    C2              1.92;
    alphaEps        0.76923;
    sigmaEps        1.3;
}

Reading field kappaEff

Creating radiation model

Selecting radiationModel P1
Selecting absorptionEmissionModel constantAbsorptionEmission
Selecting scatterModel constantScatter
Reading field Tsolid

Reading solid thermal properties
Selecting thermal model multiMaterialZones
Selecting thermal model constant
Selecting thermal model constant
Selecting thermal gap model constant
Reading solid diffusivity k


Starting time loop

--> FOAM Warning : 
    From function dlLibraryTable::open(const dictionary& dict, const word& libsEntry, const TablePtr tablePtr)
    in file lnInclude/dlLibraryTableTemplates.C at line 68
    library "libairbusMaterialModels.so" did not introduce any new entries

Time = 1

DILUPBiCG:  Solving for Ux, Initial residual = 1, Final residual = 9.86721e-05, No Iterations 2
DILUPBiCG:  Solving for Uy, Initial residual = 1, Final residual = 0.000204448, No Iterations 2
DICPCG:  Solving for p_rgh, Initial residual = 1, Final residual = 0.00982502, No Iterations 6
time step continuity errors : sum local = 0.00311453, global = -1.32349e-19, cumulative = -1.32349e-19
DILUPBiCG:  Solving for epsilon, Initial residual = 0.0778347, Final residual = 0.000142816, No Iterations 2
DILUPBiCG:  Solving for k, Initial residual = 1, Final residual = 0.00248998, No Iterations 2
DICPCG:  Solving for G, Initial residual = 1, Final residual = 0.0255384, No Iterations 11
Before T+T solve
BiCG:  Solving for T+T, Initial residual = 0.396088, Final residual = 0.0303139, No Iterations 3
Tres = -1.47161
TsRes = -31.9764
ExecutionTime = 0.02 s



Wall heat fluxes [W]
movingWall 0.0101648 0 8.04921e-07 0.0101656
left 6.7421e-07 0 -1.20093e-06 -5.26722e-07
right -1.49252 0 8.04921e-07 -1.49252
bottom 0.0107479 0 -1.20093e-06 0.0107467
frontAndBack 0 0 0 0
sum -1.47161 0 -7.92022e-07 -1.47161


Wall heat fluxes [W]
topAndBottom 0 0 0 0
left 1.49457 0 0 1.49457
right -33.471 0 0 -33.471
frontAndBack 0 0 0 0
sum -31.9764 0 0 -31.9764

Time = 2

DILUPBiCG:  Solving for Ux, Initial residual = 0.915792, Final residual = 0.00773384, No Iterations 1
DILUPBiCG:  Solving for Uy, Initial residual = 0.562121, Final residual = 0.00531398, No Iterations 1
DICPCG:  Solving for p_rgh, Initial residual = 0.947627, Final residual = 0.00725519, No Iterations 5
time step continuity errors : sum local = 0.0211308, global = -9.71441e-17, cumulative = -9.72764e-17
DILUPBiCG:  Solving for epsilon, Initial residual = 0.0203318, Final residual = 2.59714e-05, No Iterations 2
DILUPBiCG:  Solving for k, Initial residual = 0.662704, Final residual = 0.000768483, No Iterations 2
DICPCG:  Solving for G, Initial residual = 0.995013, Final residual = 0.0335212, No Iterations 13
Before T+T solve
BiCG:  Solving for T+T, Initial residual = 0.0312896, Final residual = 0.00272341, No Iterations 5
Tres = -1.33004
TsRes = -13.3781
ExecutionTime = 0.02 s



Wall heat fluxes [W]
movingWall -0.256554 -2.37334e-18 0.373615 0.117062
left 0.0108726 -3.9695e-21 0.392001 0.402873
right -0.841739 -4.12062e-15 -1.13792 -1.97966
bottom -0.24262 0 0.372304 0.129685
frontAndBack 0 0 0 0
sum -1.33004 -4.123e-15 3.05412e-06 -1.33004


Wall heat fluxes [W]
topAndBottom 0 0 0 0
left 1.82582 0 0 1.82582
right -15.2039 0 0 -15.2039
frontAndBack 0 0 0 0
sum -13.3781 0 0 -13.3781

Time = 3

DILUPBiCG:  Solving for Ux, Initial residual = 0.385748, Final residual = 0.00330423, No Iterations 1
DILUPBiCG:  Solving for Uy, Initial residual = 0.703118, Final residual = 0.00584006, No Iterations 1
DICPCG:  Solving for p_rgh, Initial residual = 0.380109, Final residual = 0.00258968, No Iterations 6
time step continuity errors : sum local = 0.0159885, global = 3.99958e-16, cumulative = 3.02682e-16
DILUPBiCG:  Solving for epsilon, Initial residual = 0.0778553, Final residual = 4.63065e-05, No Iterations 2
DILUPBiCG:  Solving for k, Initial residual = 0.211054, Final residual = 0.000244598, No Iterations 2
DICPCG:  Solving for G, Initial residual = 0.165152, Final residual = 0.00662649, No Iterations 11
Before T+T solve
BiCG:  Solving for T+T, Initial residual = 0.0118106, Final residual = 0.000553507, No Iterations 6
Tres = -1.24499
TsRes = -8.44823
ExecutionTime = 0.02 s



Wall heat fluxes [W]
movingWall -0.227815 4.27581e-15 0.23133 0.00351474
left 0.014108 9.44042e-17 0.517313 0.531421
right -0.830618 1.21405e-14 -0.945625 -1.77624
bottom -0.20067 0 0.196974 -0.00369579
frontAndBack 0 0 0 0
sum -1.24499 1.65107e-14 -7.70107e-06 -1.245


Wall heat fluxes [W]
topAndBottom 0 0 0 0
left 1.89932 0 0 1.89932
right -10.3476 0 0 -10.3476
frontAndBack 0 0 0 0
sum -8.44823 0 0 -8.44823

Time = 4

DILUPBiCG:  Solving for Ux, Initial residual = 0.221726, Final residual = 0.00199488, No Iterations 1
DILUPBiCG:  Solving for Uy, Initial residual = 0.372441, Final residual = 0.00280571, No Iterations 1
DICPCG:  Solving for p_rgh, Initial residual = 0.132568, Final residual = 0.00116123, No Iterations 9
time step continuity errors : sum local = 0.00492838, global = 1.36584e-16, cumulative = 4.39266e-16
DILUPBiCG:  Solving for epsilon, Initial residual = 0.120872, Final residual = 0.000106003, No Iterations 2
DILUPBiCG:  Solving for k, Initial residual = 0.124226, Final residual = 0.000131483, No Iterations 2
DICPCG:  Solving for G, Initial residual = 0.0352498, Final residual = 0.00107124, No Iterations 13
Before T+T solve
BiCG:  Solving for T+T, Initial residual = 0.00791389, Final residual = 0.000620931, No Iterations 5
Tres = -1.31535
TsRes = -5.95029
ExecutionTime = 0.02 s



Wall heat fluxes [W]
movingWall -0.233816 2.44183e-15 0.247369 0.0135523
left 0.0176221 -5.27065e-17 0.540199 0.557821
right -0.885691 2.72063e-15 -1.01492 -1.90061
bottom -0.213466 0 0.227355 0.0138886
frontAndBack 0 0 0 0
sum -1.31535 5.10975e-15 -8.50575e-08 -1.31535


Wall heat fluxes [W]
topAndBottom 0 0 0 0
left 2.14842 0 0 2.14842
right -8.09871 0 0 -8.09871
frontAndBack 0 0 0 0
sum -5.95029 0 0 -5.95029

Time = 5

DILUPBiCG:  Solving for Ux, Initial residual = 0.13729, Final residual = 0.000972341, No Iterations 1
DILUPBiCG:  Solving for Uy, Initial residual = 0.202707, Final residual = 0.00150077, No Iterations 1
DICPCG:  Solving for p_rgh, Initial residual = 0.101001, Final residual = 0.000553165, No Iterations 11
time step continuity errors : sum local = 0.00235846, global = 1.38801e-16, cumulative = 5.78067e-16
DILUPBiCG:  Solving for epsilon, Initial residual = 0.135506, Final residual = 0.000125687, No Iterations 2
DILUPBiCG:  Solving for k, Initial residual = 0.0921265, Final residual = 0.000169748, No Iterations 2
DICPCG:  Solving for G, Initial residual = 0.063889, Final residual = 0.00196265, No Iterations 13
Before T+T solve
BiCG:  Solving for T+T, Initial residual = 0.0061343, Final residual = 0.000387197, No Iterations 5
Tres = -1.43648
TsRes = -4.42577
ExecutionTime = 0.02 s



Wall heat fluxes [W]
movingWall -0.261719 -8.89108e-16 0.28635 0.0246312
left 0.0215885 1.58797e-16 0.606026 0.627615
right -0.951011 8.32291e-15 -1.15794 -2.10895
bottom -0.245342 0 0.265565 0.020223
frontAndBack 0 0 0 0
sum -1.43648 7.5926e-15 1.40322e-07 -1.43648


Wall heat fluxes [W]
topAndBottom 0 0 0 0
left 2.35272 0 0 2.35272
right -6.7785 0 0 -6.7785
frontAndBack 0 0 0 0
sum -4.42577 0 0 -4.42577

Time = 6

DILUPBiCG:  Solving for Ux, Initial residual = 0.110137, Final residual = 0.000787535, No Iterations 1
DILUPBiCG:  Solving for Uy, Initial residual = 0.112423, Final residual = 0.00102388, No Iterations 1
DICPCG:  Solving for p_rgh, Initial residual = 0.0800297, Final residual = 0.000588333, No Iterations 10
time step continuity errors : sum local = 0.00220554, global = 6.03312e-16, cumulative = 1.18138e-15
DILUPBiCG:  Solving for epsilon, Initial residual = 0.123282, Final residual = 0.000115476, No Iterations 2
DILUPBiCG:  Solving for k, Initial residual = 0.0766036, Final residual = 9.2755e-05, No Iterations 2
DICPCG:  Solving for G, Initial residual = 0.0638235, Final residual = 0.00193306, No Iterations 13
Before T+T solve
BiCG:  Solving for T+T, Initial residual = 0.00504783, Final residual = 0.000364346, No Iterations 4
Tres = -1.54014
TsRes = -3.42791
ExecutionTime = 0.03 s



Wall heat fluxes [W]
movingWall -0.286493 5.03678e-15 0.310149 0.0236555
left 0.0261655 2.48222e-16 0.679396 0.705561
right -1.00328 2.21826e-14 -1.288 -2.29128
bottom -0.276529 0 0.298455 0.0219258
frontAndBack 0 0 0 0
sum -1.54014 2.74676e-14 -4.69129e-07 -1.54014


Wall heat fluxes [W]
topAndBottom 0 0 0 0
left 2.51142 0 0 2.51142
right -5.93934 0 0 -5.93934
frontAndBack 0 0 0 0
sum -3.42791 0 0 -3.42791

Time = 7

DILUPBiCG:  Solving for Ux, Initial residual = 0.0856489, Final residual = 0.000675335, No Iterations 1
DILUPBiCG:  Solving for Uy, Initial residual = 0.0970074, Final residual = 0.000753753, No Iterations 1
DICPCG:  Solving for p_rgh, Initial residual = 0.0694731, Final residual = 0.000273197, No Iterations 10
time step continuity errors : sum local = 0.00100428, global = 5.79688e-17, cumulative = 1.23935e-15
DILUPBiCG:  Solving for epsilon, Initial residual = 0.0998131, Final residual = 0.000101703, No Iterations 2
DILUPBiCG:  Solving for k, Initial residual = 0.0674211, Final residual = 9.14739e-05, No Iterations 2
DICPCG:  Solving for G, Initial residual = 0.0551227, Final residual = 0.00164033, No Iterations 13
Before T+T solve
BiCG:  Solving for T+T, Initial residual = 0.00436161, Final residual = 0.000243793, No Iterations 4
Tres = -1.62422
TsRes = -2.73346
ExecutionTime = 0.03 s



Wall heat fluxes [W]
movingWall -0.308987 4.70143e-15 0.33244 0.0234529
left 0.0306835 8.6715e-18 0.749238 0.779921
right -1.04349 -3.27139e-15 -1.40599 -2.44948
bottom -0.302426 0 0.324311 0.0218851
frontAndBack 0 0 0 0
sum -1.62422 1.43872e-15 -4.75603e-07 -1.62422


Wall heat fluxes [W]
topAndBottom 0 0 0 0
left 2.63766 0 0 2.63766
right -5.37112 0 0 -5.37112
frontAndBack 0 0 0 0
sum -2.73346 0 0 -2.73346

Time = 8

DILUPBiCG:  Solving for Ux, Initial residual = 0.0694707, Final residual = 0.000571057, No Iterations 1
DILUPBiCG:  Solving for Uy, Initial residual = 0.0823253, Final residual = 0.000626255, No Iterations 1
DICPCG:  Solving for p_rgh, Initial residual = 0.0669771, Final residual = 0.00032489, No Iterations 10
time step continuity errors : sum local = 0.00119897, global = 1.05681e-16, cumulative = 1.34503e-15
DILUPBiCG:  Solving for epsilon, Initial residual = 0.0776573, Final residual = 2.36811e-06, No Iterations 3
DILUPBiCG:  Solving for k, Initial residual = 0.0624837, Final residual = 0.000103916, No Iterations 2
DICPCG:  Solving for G, Initial residual = 0.0464405, Final residual = 0.00139543, No Iterations 13
Before T+T solve
BiCG:  Solving for T+T, Initial residual = 0.00389457, Final residual = 0.000388891, No Iterations 3
Tres = -1.68558
TsRes = -2.20666
ExecutionTime = 0.03 s



Wall heat fluxes [W]
movingWall -0.326508 3.47237e-15 0.349108 0.0226001
left 0.0343694 1.06226e-16 0.81306 0.84743
right -1.07063 2.50645e-18 -1.50638 -2.57701
bottom -0.322816 0 0.344208 0.0213912
frontAndBack 0 0 0 0
sum -1.68558 3.5811e-15 -6.26647e-07 -1.68559


Wall heat fluxes [W]
topAndBottom 0 0 0 0
left 2.73512 0 0 2.73512
right -4.94178 0 0 -4.94178
frontAndBack 0 0 0 0
sum -2.20666 0 0 -2.20666

Time = 9

DILUPBiCG:  Solving for Ux, Initial residual = 0.0594407, Final residual = 0.000501332, No Iterations 1
DILUPBiCG:  Solving for Uy, Initial residual = 0.0721736, Final residual = 0.000560681, No Iterations 1
DICPCG:  Solving for p_rgh, Initial residual = 0.0713786, Final residual = 0.000403536, No Iterations 10
time step continuity errors : sum local = 0.00156212, global = 8.75405e-17, cumulative = 1.43257e-15
DILUPBiCG:  Solving for epsilon, Initial residual = 0.0616669, Final residual = 7.6812e-05, No Iterations 2
DILUPBiCG:  Solving for k, Initial residual = 0.059281, Final residual = 9.75059e-05, No Iterations 2
DICPCG:  Solving for G, Initial residual = 0.0394046, Final residual = 0.00117227, No Iterations 13
Before T+T solve
BiCG:  Solving for T+T, Initial residual = 0.00355985, Final residual = 0.000245084, No Iterations 3
Tres = -1.72783
TsRes = -1.79886
ExecutionTime = 0.03 s



Wall heat fluxes [W]
movingWall -0.339129 2.64945e-15 0.361496 0.0223667
left 0.037303 4.33575e-18 0.870868 0.908171
right -1.0867 2.50289e-15 -1.59145 -2.67815
bottom -0.339304 0 0.359081 0.0197775
frontAndBack 0 0 0 0
sum -1.72783 5.15667e-15 -6.14499e-07 -1.72783


Wall heat fluxes [W]
topAndBottom 0 0 0 0
left 2.80348 0 0 2.80348
right -4.60234 0 0 -4.60234
frontAndBack 0 0 0 0
sum -1.79886 0 0 -1.79886

Time = 10

DILUPBiCG:  Solving for Ux, Initial residual = 0.0576928, Final residual = 0.000524327, No Iterations 1
DILUPBiCG:  Solving for Uy, Initial residual = 0.0651465, Final residual = 0.000522877, No Iterations 1
DICPCG:  Solving for p_rgh, Initial residual = 0.0796847, Final residual = 0.000751039, No Iterations 9
time step continuity errors : sum local = 0.00313374, global = -1.34202e-16, cumulative = 1.29837e-15
DILUPBiCG:  Solving for epsilon, Initial residual = 0.0495112, Final residual = 4.60322e-05, No Iterations 2
DILUPBiCG:  Solving for k, Initial residual = 0.0562761, Final residual = 8.37952e-05, No Iterations 2
DICPCG:  Solving for G, Initial residual = 0.0333688, Final residual = 0.00100447, No Iterations 13
Before T+T solve
BiCG:  Solving for T+T, Initial residual = 0.00327465, Final residual = 0.000118988, No Iterations 4
Tres = -1.75495
TsRes = -1.4719
ExecutionTime = 0.04 s



Wall heat fluxes [W]
movingWall -0.346278 -2.61251e-15 0.368139 0.0218611
left 0.0398249 -1.90773e-16 0.922472 0.962297
right -1.09567 -2.53952e-15 -1.66163 -2.7573
bottom -0.35283 0 0.371022 0.0181923
frontAndBack 0 0 0 0
sum -1.75495 -5.3428e-15 -6.77769e-07 -1.75495


Wall heat fluxes [W]
topAndBottom 0 0 0 0
left 2.85132 0 0 2.85132
right -4.32322 0 0 -4.32322
frontAndBack 0 0 0 0
sum -1.4719 0 0 -1.4719

Time = 11

DILUPBiCG:  Solving for Ux, Initial residual = 0.0589681, Final residual = 0.000569299, No Iterations 1
DILUPBiCG:  Solving for Uy, Initial residual = 0.0609291, Final residual = 0.000508492, No Iterations 1
DICPCG:  Solving for p_rgh, Initial residual = 0.0943568, Final residual = 0.000615048, No Iterations 9
time step continuity errors : sum local = 0.00283358, global = 5.98217e-17, cumulative = 1.35819e-15
DILUPBiCG:  Solving for epsilon, Initial residual = 0.0410974, Final residual = 3.65895e-05, No Iterations 2
DILUPBiCG:  Solving for k, Initial residual = 0.0537379, Final residual = 7.44012e-05, No Iterations 2
DICPCG:  Solving for G, Initial residual = 0.0280187, Final residual = 0.000839441, No Iterations 13
Before T+T solve
BiCG:  Solving for T+T, Initial residual = 0.0030477, Final residual = 0.000110585, No Iterations 4
Tres = -1.77389
TsRes = -1.20157
ExecutionTime = 0.04 s



Wall heat fluxes [W]
movingWall -0.347991 1.39249e-16 0.369336 0.0213455
left 0.0421514 1.38744e-16 0.967627 1.00978
right -1.10458 2.11683e-15 -1.71668 -2.82127
bottom -0.363465 0 0.379719 0.0162545
frontAndBack 0 0 0 0
sum -1.77389 2.39482e-15 -6.4872e-07 -1.77389


Wall heat fluxes [W]
topAndBottom 0 0 0 0
left 2.89444 0 0 2.89444
right -4.09601 0 0 -4.09601
frontAndBack 0 0 0 0
sum -1.20157 0 0 -1.20157

Time = 12

DILUPBiCG:  Solving for Ux, Initial residual = 0.058349, Final residual = 0.000553659, No Iterations 1
DILUPBiCG:  Solving for Uy, Initial residual = 0.0564905, Final residual = 0.000484546, No Iterations 1
DICPCG:  Solving for p_rgh, Initial residual = 0.0890863, Final residual = 0.000602684, No Iterations 9
time step continuity errors : sum local = 0.00297267, global = 4.85886e-17, cumulative = 1.40678e-15
DILUPBiCG:  Solving for epsilon, Initial residual = 0.035347, Final residual = 3.13531e-05, No Iterations 2
DILUPBiCG:  Solving for k, Initial residual = 0.0523425, Final residual = 7.16939e-05, No Iterations 2
DICPCG:  Solving for G, Initial residual = 0.0238792, Final residual = 0.000735716, No Iterations 13
Before T+T solve
BiCG:  Solving for T+T, Initial residual = 0.00287521, Final residual = 0.00026264, No Iterations 3
Tres = -1.79188
TsRes = -0.966269
ExecutionTime = 0.04 s



Wall heat fluxes [W]
movingWall -0.345729 2.55768e-15 0.366199 0.0204706
left 0.0446 1.90773e-16 1.00741 1.05201
right -1.11847 4.17799e-16 -1.76057 -2.87904
bottom -0.372274 0 0.386959 0.0146854
frontAndBack 0 0 0 0
sum -1.79188 3.16625e-15 -6.65836e-07 -1.79188


Wall heat fluxes [W]
topAndBottom 0 0 0 0
left 2.94465 0 0 2.94465
right -3.91092 0 0 -3.91092
frontAndBack 0 0 0 0
sum -0.966269 0 0 -0.966269

Time = 13

DILUPBiCG:  Solving for Ux, Initial residual = 0.0548415, Final residual = 0.00052202, No Iterations 1
DILUPBiCG:  Solving for Uy, Initial residual = 0.0520687, Final residual = 0.000457942, No Iterations 1
DICPCG:  Solving for p_rgh, Initial residual = 0.0823917, Final residual = 0.000766927, No Iterations 9
time step continuity errors : sum local = 0.00354622, global = -3.59989e-17, cumulative = 1.37078e-15
DILUPBiCG:  Solving for epsilon, Initial residual = 0.0314692, Final residual = 2.89179e-05, No Iterations 2
DILUPBiCG:  Solving for k, Initial residual = 0.0514564, Final residual = 7.15006e-05, No Iterations 2
DICPCG:  Solving for G, Initial residual = 0.020523, Final residual = 0.000631707, No Iterations 13
Before T+T solve
BiCG:  Solving for T+T, Initial residual = 0.00273453, Final residual = 0.000156068, No Iterations 3
Tres = -1.79643
TsRes = -0.787587
ExecutionTime = 0.04 s



Wall heat fluxes [W]
movingWall -0.341508 -3.89079e-15 0.360109 0.0186004
left 0.0470858 1.7343e-17 1.04246 1.08954
right -1.12257 4.27623e-15 -1.7952 -2.91776
bottom -0.379438 0 0.392629 0.0131914
frontAndBack 0 0 0 0
sum -1.79643 4.02784e-16 -5.71359e-07 -1.79643


Wall heat fluxes [W]
topAndBottom 0 0 0 0
left 2.97396 0 0 2.97396
right -3.76155 0 0 -3.76155
frontAndBack 0 0 0 0
sum -0.787587 0 0 -0.787587

Time = 14

DILUPBiCG:  Solving for Ux, Initial residual = 0.0534728, Final residual = 0.000512058, No Iterations 1
DILUPBiCG:  Solving for Uy, Initial residual = 0.0504129, Final residual = 0.000452599, No Iterations 1
DICPCG:  Solving for p_rgh, Initial residual = 0.117125, Final residual = 0.000923668, No Iterations 9
time step continuity errors : sum local = 0.00406738, global = -1.16467e-17, cumulative = 1.35913e-15
DILUPBiCG:  Solving for epsilon, Initial residual = 0.0291804, Final residual = 2.7415e-05, No Iterations 2
DILUPBiCG:  Solving for k, Initial residual = 0.0511031, Final residual = 7.40389e-05, No Iterations 2
DICPCG:  Solving for G, Initial residual = 0.0172247, Final residual = 0.000507565, No Iterations 13
Before T+T solve
BiCG:  Solving for T+T, Initial residual = 0.00256396, Final residual = 0.000197342, No Iterations 3
Tres = -1.79484
TsRes = -0.644034
ExecutionTime = 0.05 s



Wall heat fluxes [W]
movingWall -0.334958 5.39587e-15 0.35273 0.017772
left 0.049869 -2.94831e-16 1.07244 1.12231
right -1.12503 -5.59135e-15 -1.8214 -2.94643
bottom -0.38472 0 0.396232 0.0115116
frontAndBack 0 0 0 0
sum -1.79484 -4.90311e-16 -3.77094e-07 -1.79484


Wall heat fluxes [W]
topAndBottom 0 0 0 0
left 2.99583 0 0 2.99583
right -3.63986 0 0 -3.63986
frontAndBack 0 0 0 0
sum -0.644034 0 0 -0.644034

Time = 15

DILUPBiCG:  Solving for Ux, Initial residual = 0.0520769, Final residual = 0.000499973, No Iterations 1
DILUPBiCG:  Solving for Uy, Initial residual = 0.0482976, Final residual = 0.000438737, No Iterations 1
DICPCG:  Solving for p_rgh, Initial residual = 0.159031, Final residual = 0.00118558, No Iterations 9
time step continuity errors : sum local = 0.00486719, global = 2.12552e-16, cumulative = 1.57168e-15
DILUPBiCG:  Solving for epsilon, Initial residual = 0.0283515, Final residual = 2.60757e-05, No Iterations 2
DILUPBiCG:  Solving for k, Initial residual = 0.0508762, Final residual = 7.51454e-05, No Iterations 2
DICPCG:  Solving for G, Initial residual = 0.0148244, Final residual = 0.000441979, No Iterations 13
Before T+T solve
BiCG:  Solving for T+T, Initial residual = 0.00245921, Final residual = 0.000173598, No Iterations 3
Tres = -1.78828
TsRes = -0.530054
ExecutionTime = 0.05 s



Wall heat fluxes [W]
movingWall -0.326844 1.34576e-15 0.343276 0.016432
left 0.0531132 1.38744e-16 1.09866 1.15178
right -1.12552 9.0493e-15 -1.8414 -2.96692
bottom -0.389032 0 0.399456 0.0104237
frontAndBack 0 0 0 0
sum -1.78828 1.05338e-14 -3.17602e-07 -1.78828


Wall heat fluxes [W]
topAndBottom 0 0 0 0
left 3.01071 0 0 3.01071
right -3.54076 0 0 -3.54076
frontAndBack 0 0 0 0
sum -0.530054 0 0 -0.530054

Time = 16

DILUPBiCG:  Solving for Ux, Initial residual = 0.0489451, Final residual = 0.000478634, No Iterations 1
DILUPBiCG:  Solving for Uy, Initial residual = 0.0444618, Final residual = 0.000410042, No Iterations 1
DICPCG:  Solving for p_rgh, Initial residual = 0.146045, Final residual = 0.00118508, No Iterations 9
time step continuity errors : sum local = 0.00475457, global = -2.29758e-16, cumulative = 1.34193e-15
DILUPBiCG:  Solving for epsilon, Initial residual = 0.0280429, Final residual = 2.61367e-05, No Iterations 2
DILUPBiCG:  Solving for k, Initial residual = 0.0507776, Final residual = 7.70617e-05, No Iterations 2
DICPCG:  Solving for G, Initial residual = 0.0128868, Final residual = 0.000367073, No Iterations 13
Before T+T solve
BiCG:  Solving for T+T, Initial residual = 0.0023687, Final residual = 0.000209661, No Iterations 3
Tres = -1.77732
TsRes = -0.440027
ExecutionTime = 0.05 s



Wall heat fluxes [W]
movingWall -0.317926 -1.17759e-15 0.333384 0.0154581
left 0.0571951 -8.6715e-17 1.12173 1.17892
right -1.12426 -8.64324e-15 -1.8568 -2.98107
bottom -0.392324 0 0.401692 0.00936734
frontAndBack 0 0 0 0
sum -1.77732 -9.90755e-15 -2.30017e-07 -1.77732


Wall heat fluxes [W]
topAndBottom 0 0 0 0
left 3.01971 0 0 3.01971
right -3.45974 0 0 -3.45974
frontAndBack 0 0 0 0
sum -0.440027 0 0 -0.440027

Time = 17

DILUPBiCG:  Solving for Ux, Initial residual = 0.0452606, Final residual = 2.73646e-06, No Iterations 2
DILUPBiCG:  Solving for Uy, Initial residual = 0.0407005, Final residual = 0.000371504, No Iterations 1
DICPCG:  Solving for p_rgh, Initial residual = 0.11549, Final residual = 0.000802457, No Iterations 9
time step continuity errors : sum local = 0.00324541, global = 1.94801e-16, cumulative = 1.53673e-15
DILUPBiCG:  Solving for epsilon, Initial residual = 0.0284356, Final residual = 2.67974e-05, No Iterations 2
DILUPBiCG:  Solving for k, Initial residual = 0.0518345, Final residual = 8.1825e-05, No Iterations 2
DICPCG:  Solving for G, Initial residual = 0.0113297, Final residual = 0.00030625, No Iterations 13
Before T+T solve
BiCG:  Solving for T+T, Initial residual = 0.00231122, Final residual = 0.000206476, No Iterations 3
Tres = -1.76219
TsRes = -0.369393
ExecutionTime = 0.05 s



Wall heat fluxes [W]
movingWall -0.308229 4.02609e-15 0.322885 0.0146557
left 0.0622978 2.77488e-16 1.14221 1.20451
right -1.12138 2.15548e-15 -1.86856 -2.98994
bottom -0.394877 0 0.403463 0.0085862
frontAndBack 0 0 0 0
sum -1.76219 6.45906e-15 -1.60187e-07 -1.76219


Wall heat fluxes [W]
topAndBottom 0 0 0 0
left 3.0239 0 0 3.0239
right -3.39329 0 0 -3.39329
frontAndBack 0 0 0 0
sum -0.369393 0 0 -0.369393

Time = 18

DILUPBiCG:  Solving for Ux, Initial residual = 0.0426082, Final residual = 2.33269e-06, No Iterations 2
DILUPBiCG:  Solving for Uy, Initial residual = 0.0382773, Final residual = 0.000337756, No Iterations 1
DICPCG:  Solving for p_rgh, Initial residual = 0.10341, Final residual = 0.000439845, No Iterations 9
time step continuity errors : sum local = 0.00169228, global = 3.70577e-17, cumulative = 1.57379e-15
DILUPBiCG:  Solving for epsilon, Initial residual = 0.0291256, Final residual = 2.738e-05, No Iterations 2
DILUPBiCG:  Solving for k, Initial residual = 0.0532845, Final residual = 8.77568e-05, No Iterations 2
DICPCG:  Solving for G, Initial residual = 0.0100397, Final residual = 0.000258798, No Iterations 13
Before T+T solve
BiCG:  Solving for T+T, Initial residual = 0.00226706, Final residual = 0.000224044, No Iterations 3
Tres = -1.74246
TsRes = -0.314828
ExecutionTime = 0.05 s



Wall heat fluxes [W]
movingWall -0.297722 -2.76088e-15 0.311825 0.0141024
left 0.0687684 -3.4686e-16 1.16052 1.22929
right -1.11677 4.7724e-15 -1.87697 -2.99373
bottom -0.396739 0 0.404619 0.00787975
frontAndBack 0 0 0 0
sum -1.74246 1.66466e-15 -8.74145e-08 -1.74246


Wall heat fluxes [W]
topAndBottom 0 0 0 0
left 3.02357 0 0 3.02357
right -3.33839 0 0 -3.33839
frontAndBack 0 0 0 0
sum -0.314828 0 0 -0.314828

Time = 19

DILUPBiCG:  Solving for Ux, Initial residual = 0.0399637, Final residual = 2.30533e-06, No Iterations 2
DILUPBiCG:  Solving for Uy, Initial residual = 0.0366305, Final residual = 0.00031922, No Iterations 1
DICPCG:  Solving for p_rgh, Initial residual = 0.100406, Final residual = 0.000670162, No Iterations 9
time step continuity errors : sum local = 0.00260932, global = 2.18243e-16, cumulative = 1.79203e-15
DILUPBiCG:  Solving for epsilon, Initial residual = 0.0300504, Final residual = 3.09822e-05, No Iterations 2
DILUPBiCG:  Solving for k, Initial residual = 0.0547511, Final residual = 9.39381e-05, No Iterations 2
DICPCG:  Solving for G, Initial residual = 0.00909176, Final residual = 0.00022276, No Iterations 13
Before T+T solve
BiCG:  Solving for T+T, Initial residual = 0.00223392, Final residual = 0.000216557, No Iterations 3
Tres = -1.71924
TsRes = -0.272393
ExecutionTime = 0.06 s



Wall heat fluxes [W]
movingWall -0.286584 -1.97584e-15 0.300264 0.0136797
left 0.0766848 5.54976e-16 1.17722 1.2539
right -1.11111 1.12803e-14 -1.88305 -2.99416
bottom -0.398234 0 0.405568 0.007334
frontAndBack 0 0 0 0
sum -1.71924 9.85939e-15 -2.72379e-08 -1.71924


Wall heat fluxes [W]
topAndBottom 0 0 0 0
left 3.02035 0 0 3.02035
right -3.29274 0 0 -3.29274
frontAndBack 0 0 0 0
sum -0.272393 0 0 -0.272393

Time = 20

DILUPBiCG:  Solving for Ux, Initial residual = 0.037306, Final residual = 2.41916e-06, No Iterations 2
DILUPBiCG:  Solving for Uy, Initial residual = 0.0350399, Final residual = 0.000308308, No Iterations 1
DICPCG:  Solving for p_rgh, Initial residual = 0.108167, Final residual = 0.000573978, No Iterations 10
time step continuity errors : sum local = 0.00216178, global = -2.08847e-16, cumulative = 1.58318e-15
DILUPBiCG:  Solving for epsilon, Initial residual = 0.0311173, Final residual = 3.62906e-05, No Iterations 2
DILUPBiCG:  Solving for k, Initial residual = 0.0564338, Final residual = 9.93484e-05, No Iterations 2
DICPCG:  Solving for G, Initial residual = 0.00828852, Final residual = 0.000768048, No Iterations 12
Before T+T solve
BiCG:  Solving for T+T, Initial residual = 0.00222545, Final residual = 0.000218684, No Iterations 3
Tres = -1.69254
TsRes = -0.239605
ExecutionTime = 0.06 s



Wall heat fluxes [W]
movingWall -0.274979 -5.40062e-15 0.288154 0.0131755
left 0.0863334 1.2487e-15 1.19251 1.27885
right -1.1044 -6.09049e-15 -1.88687 -2.99127
bottom -0.399494 0 0.406202 0.0067074
frontAndBack 0 0 0 0
sum -1.69254 -1.02424e-14 -9.73336e-08 -1.69254


Wall heat fluxes [W]
topAndBottom 0 0 0 0
left 3.01447 0 0 3.01447
right -3.25408 0 0 -3.25408
frontAndBack 0 0 0 0
sum -0.239605 0 0 -0.239605

Time = 21

DILUPBiCG:  Solving for Ux, Initial residual = 0.0346306, Final residual = 2.92095e-06, No Iterations 2
DILUPBiCG:  Solving for Uy, Initial residual = 0.0330742, Final residual = 0.000294275, No Iterations 1
DICPCG:  Solving for p_rgh, Initial residual = 0.10183, Final residual = 0.000500903, No Iterations 10
time step continuity errors : sum local = 0.00196913, global = -4.49821e-17, cumulative = 1.5382e-15
DILUPBiCG:  Solving for epsilon, Initial residual = 0.0319374, Final residual = 4.19363e-05, No Iterations 2
DILUPBiCG:  Solving for k, Initial residual = 0.058197, Final residual = 0.000103564, No Iterations 2
DICPCG:  Solving for G, Initial residual = 0.00800212, Final residual = 0.000735007, No Iterations 11
Before T+T solve
BiCG:  Solving for T+T, Initial residual = 0.00220936, Final residual = 0.000206886, No Iterations 3
Tres = -1.66313
TsRes = -0.213932
ExecutionTime = 0.06 s



Wall heat fluxes [W]
movingWall -0.263316 2.7552e-15 0.275903 0.0125868
left 0.0977856 1.17932e-15 1.20665 1.30444
right -1.09708 -8.25992e-15 -1.88948 -2.98656
bottom -0.400515 0 0.406922 0.00640751
frontAndBack 0 0 0 0
sum -1.66313 -4.32539e-15 -9.65688e-07 -1.66313


Wall heat fluxes [W]
topAndBottom 0 0 0 0
left 3.00713 0 0 3.00713
right -3.22107 0 0 -3.22107
frontAndBack 0 0 0 0
sum -0.213932 0 0 -0.213932

Time = 22

DILUPBiCG:  Solving for Ux, Initial residual = 0.0315203, Final residual = 3.35188e-06, No Iterations 2
DILUPBiCG:  Solving for Uy, Initial residual = 0.0315995, Final residual = 0.000281205, No Iterations 1
DICPCG:  Solving for p_rgh, Initial residual = 0.0824957, Final residual = 0.000392633, No Iterations 10
time step continuity errors : sum local = 0.00158244, global = 2.61521e-16, cumulative = 1.79972e-15
DILUPBiCG:  Solving for epsilon, Initial residual = 0.03284, Final residual = 4.82084e-05, No Iterations 2
DILUPBiCG:  Solving for k, Initial residual = 0.0596846, Final residual = 0.000108463, No Iterations 2
DICPCG:  Solving for G, Initial residual = 0.00745786, Final residual = 0.000582078, No Iterations 11
Before T+T solve
BiCG:  Solving for T+T, Initial residual = 0.0021961, Final residual = 0.000205807, No Iterations 3
Tres = -1.6305
TsRes = -0.194071
ExecutionTime = 0.07 s



Wall heat fluxes [W]
movingWall -0.251873 5.82198e-15 0.263786 0.0119132
left 0.111242 -1.21401e-15 1.21974 1.33098
right -1.08878 7.83421e-15 -1.89073 -2.97951
bottom -0.40109 0 0.4072 0.0061102
frontAndBack 0 0 0 0
sum -1.6305 1.24422e-14 -1.191e-07 -1.6305


Wall heat fluxes [W]
topAndBottom 0 0 0 0
left 2.99807 0 0 2.99807
right -3.19214 0 0 -3.19214
frontAndBack 0 0 0 0
sum -0.194071 0 0 -0.194071

Time = 23

DILUPBiCG:  Solving for Ux, Initial residual = 0.0281428, Final residual = 3.70894e-06, No Iterations 2
DILUPBiCG:  Solving for Uy, Initial residual = 0.0297556, Final residual = 0.000264267, No Iterations 1
DICPCG:  Solving for p_rgh, Initial residual = 0.0653936, Final residual = 0.000404564, No Iterations 10
time step continuity errors : sum local = 0.00185688, global = -1.56172e-16, cumulative = 1.64355e-15
DILUPBiCG:  Solving for epsilon, Initial residual = 0.0342187, Final residual = 5.52911e-05, No Iterations 2
DILUPBiCG:  Solving for k, Initial residual = 0.0611554, Final residual = 0.000117101, No Iterations 2
DICPCG:  Solving for G, Initial residual = 0.00690294, Final residual = 0.000389512, No Iterations 11
Before T+T solve
BiCG:  Solving for T+T, Initial residual = 0.00215529, Final residual = 0.000195813, No Iterations 3
Tres = -1.5951
TsRes = -0.178746
ExecutionTime = 0.07 s



Wall heat fluxes [W]
movingWall -0.240773 -3.88312e-15 0.252194 0.0114209
left 0.126667 -1.14464e-15 1.23201 1.35868
right -1.0797 -4.38381e-16 -1.89145 -2.97115
bottom -0.401294 0 0.407243 0.00594844
frontAndBack 0 0 0 0
sum -1.5951 -5.46614e-15 -7.61074e-07 -1.5951


Wall heat fluxes [W]
topAndBottom 0 0 0 0
left 2.98789 0 0 2.98789
right -3.16664 0 0 -3.16664
frontAndBack 0 0 0 0
sum -0.178746 0 0 -0.178746

Time = 24

DILUPBiCG:  Solving for Ux, Initial residual = 0.0250903, Final residual = 3.94184e-06, No Iterations 2
DILUPBiCG:  Solving for Uy, Initial residual = 0.0279215, Final residual = 0.000255716, No Iterations 1
DICPCG:  Solving for p_rgh, Initial residual = 0.0559315, Final residual = 0.000523837, No Iterations 10
time step continuity errors : sum local = 0.0025331, global = -1.01644e-16, cumulative = 1.54191e-15
DILUPBiCG:  Solving for epsilon, Initial residual = 0.0349673, Final residual = 6.24943e-05, No Iterations 2
DILUPBiCG:  Solving for k, Initial residual = 0.0623213, Final residual = 0.000129123, No Iterations 2
DICPCG:  Solving for G, Initial residual = 0.00640576, Final residual = 0.000280082, No Iterations 11
Before T+T solve
BiCG:  Solving for T+T, Initial residual = 0.00212741, Final residual = 0.000212651, No Iterations 2
Tres = -1.55435
TsRes = -0.188532
ExecutionTime = 0.07 s



Wall heat fluxes [W]
movingWall -0.22987 -2.0088e-15 0.240887 0.0110176
left 0.144287 1.04058e-15 1.24357 1.38786
right -1.06764 -4.35507e-15 -1.89137 -2.95901
bottom -0.401126 0 0.406905 0.00577868
frontAndBack 0 0 0 0
sum -1.55435 -5.32329e-15 -4.7164e-07 -1.55435


Wall heat fluxes [W]
topAndBottom 0 0 0 0
left 2.97061 0 0 2.97061
right -3.15914 0 0 -3.15914
frontAndBack 0 0 0 0
sum -0.188532 0 0 -0.188532

Time = 25

DILUPBiCG:  Solving for Ux, Initial residual = 0.0227132, Final residual = 3.99673e-06, No Iterations 2
DILUPBiCG:  Solving for Uy, Initial residual = 0.025751, Final residual = 0.000247898, No Iterations 1
DICPCG:  Solving for p_rgh, Initial residual = 0.0489813, Final residual = 0.000137778, No Iterations 12
time step continuity errors : sum local = 0.00061431, global = -1.21761e-17, cumulative = 1.52973e-15
DILUPBiCG:  Solving for epsilon, Initial residual = 0.0349692, Final residual = 6.85311e-05, No Iterations 2
DILUPBiCG:  Solving for k, Initial residual = 0.0629604, Final residual = 0.000138415, No Iterations 2
DICPCG:  Solving for G, Initial residual = 0.00607919, Final residual = 0.00019166, No Iterations 11
Before T+T solve
BiCG:  Solving for T+T, Initial residual = 0.00205152, Final residual = 0.000151036, No Iterations 3
Tres = -1.51479
TsRes = -0.176615
ExecutionTime = 0.07 s



Wall heat fluxes [W]
movingWall -0.219861 2.2887e-17 0.229929 0.0100681
left 0.163363 -1.28338e-15 1.25468 1.41804
right -1.0578 4.34442e-16 -1.89106 -2.94886
bottom -0.400494 0 0.406448 0.00595403
frontAndBack 0 0 0 0
sum -1.51479 -8.26053e-16 -2.38583e-07 -1.51479


Wall heat fluxes [W]
topAndBottom 0 0 0 0
left 2.95819 0 0 2.95819
right -3.1348 0 0 -3.1348
frontAndBack 0 0 0 0
sum -0.176615 0 0 -0.176615

Time = 26

DILUPBiCG:  Solving for Ux, Initial residual = 0.0197144, Final residual = 3.42249e-06, No Iterations 2
DILUPBiCG:  Solving for Uy, Initial residual = 0.0234787, Final residual = 0.00023426, No Iterations 1
DICPCG:  Solving for p_rgh, Initial residual = 0.0439957, Final residual = 0.000132897, No Iterations 12
time step continuity errors : sum local = 0.000599589, global = -2.69992e-17, cumulative = 1.50273e-15
DILUPBiCG:  Solving for epsilon, Initial residual = 0.0340556, Final residual = 7.31491e-05, No Iterations 2
DILUPBiCG:  Solving for k, Initial residual = 0.0627642, Final residual = 0.000144826, No Iterations 2
DICPCG:  Solving for G, Initial residual = 0.00485763, Final residual = 0.00036944, No Iterations 12
Before T+T solve
BiCG:  Solving for T+T, Initial residual = 0.00200304, Final residual = 0.000163276, No Iterations 3
Tres = -1.47109
TsRes = -0.163541
ExecutionTime = 0.07 s



Wall heat fluxes [W]
movingWall -0.210052 2.78978e-15 0.218684 0.00863229
left 0.18394 -3.64203e-15 1.26361 1.44755
right -1.04649 4.33009e-16 -1.88573 -2.93222
bottom -0.39849 0 0.403442 0.00495245
frontAndBack 0 0 0 0
sum -1.47109 -4.19243e-16 2.60902e-07 -1.47109


Wall heat fluxes [W]
topAndBottom 0 0 0 0
left 2.94831 0 0 2.94831
right -3.11185 0 0 -3.11185
frontAndBack 0 0 0 0
sum -0.163541 0 0 -0.163541

Time = 27

DILUPBiCG:  Solving for Ux, Initial residual = 0.017406, Final residual = 3.17199e-06, No Iterations 2
DILUPBiCG:  Solving for Uy, Initial residual = 0.0212173, Final residual = 2.60972e-06, No Iterations 2
DICPCG:  Solving for p_rgh, Initial residual = 0.0369373, Final residual = 0.000369006, No Iterations 11
time step continuity errors : sum local = 0.00169478, global = 8.20563e-18, cumulative = 1.51094e-15
DILUPBiCG:  Solving for epsilon, Initial residual = 0.0333838, Final residual = 7.54188e-05, No Iterations 2
DILUPBiCG:  Solving for k, Initial residual = 0.0620566, Final residual = 0.00015005, No Iterations 2
DICPCG:  Solving for G, Initial residual = 0.00546513, Final residual = 0.000268727, No Iterations 11
Before T+T solve
BiCG:  Solving for T+T, Initial residual = 0.00195614, Final residual = 0.000184381, No Iterations 3
Tres = -1.42854
TsRes = -0.154862
ExecutionTime = 0.08 s



Wall heat fluxes [W]
movingWall -0.202386 1.45864e-15 0.211274 0.00888805
left 0.205599 -1.00589e-15 1.27346 1.47906
right -1.03438 -1.7358e-15 -1.88813 -2.92251
bottom -0.397371 0 0.403393 0.00602211
frontAndBack 0 0 0 0
sum -1.42854 -1.28305e-15 -4.54788e-07 -1.42854


Wall heat fluxes [W]
topAndBottom 0 0 0 0
left 2.93529 0 0 2.93529
right -3.09015 0 0 -3.09015
frontAndBack 0 0 0 0
sum -0.154862 0 0 -0.154862

Time = 28

DILUPBiCG:  Solving for Ux, Initial residual = 0.0157773, Final residual = 3.18965e-06, No Iterations 2
DILUPBiCG:  Solving for Uy, Initial residual = 0.0186611, Final residual = 2.34126e-06, No Iterations 2
DICPCG:  Solving for p_rgh, Initial residual = 0.0306194, Final residual = 0.000277743, No Iterations 7
time step continuity errors : sum local = 0.00173567, global = -7.45124e-17, cumulative = 1.43642e-15
DILUPBiCG:  Solving for epsilon, Initial residual = 0.0324426, Final residual = 7.17928e-05, No Iterations 2
DILUPBiCG:  Solving for k, Initial residual = 0.0612846, Final residual = 0.000169569, No Iterations 2
DICPCG:  Solving for G, Initial residual = 0.00547933, Final residual = 0.000311636, No Iterations 11
Before T+T solve
BiCG:  Solving for T+T, Initial residual = 0.0019011, Final residual = 0.000189643, No Iterations 2
Tres = -1.38256
TsRes = -0.168223
ExecutionTime = 0.08 s



Wall heat fluxes [W]
movingWall -0.1955 -4.2166e-15 0.203445 0.00794524
left 0.228286 3.05237e-15 1.28342 1.5117
right -1.01975 -1.3064e-15 -1.88816 -2.90792
bottom -0.395597 0 0.401302 0.00570514
frontAndBack 0 0 0 0
sum -1.38256 -2.47063e-15 -4.28035e-07 -1.38256


Wall heat fluxes [W]
topAndBottom 0 0 0 0
left 2.91584 0 0 2.91584
right -3.08406 0 0 -3.08406
frontAndBack 0 0 0 0
sum -0.168223 0 0 -0.168223

Time = 29

DILUPBiCG:  Solving for Ux, Initial residual = 0.0145285, Final residual = 6.43726e-06, No Iterations 2
DILUPBiCG:  Solving for Uy, Initial residual = 0.0173865, Final residual = 2.37018e-06, No Iterations 2
DICPCG:  Solving for p_rgh, Initial residual = 0.0268487, Final residual = 0.000216916, No Iterations 11
time step continuity errors : sum local = 0.0010126, global = 5.24722e-17, cumulative = 1.4889e-15
DILUPBiCG:  Solving for epsilon, Initial residual = 0.0315823, Final residual = 6.11257e-05, No Iterations 2
DILUPBiCG:  Solving for k, Initial residual = 0.0602727, Final residual = 0.000101853, No Iterations 2
DICPCG:  Solving for G, Initial residual = 0.00512337, Final residual = 0.000332979, No Iterations 11
Before T+T solve
BiCG:  Solving for T+T, Initial residual = 0.00184149, Final residual = 0.000136118, No Iterations 3
Tres = -1.33982
TsRes = -0.161667
ExecutionTime = 0.08 s



Wall heat fluxes [W]
movingWall -0.190136 2.80227e-15 0.196786 0.00664983
left 0.250867 -1.38744e-15 1.29265 1.54352
right -1.00748 1.75365e-15 -1.88857 -2.89605
bottom -0.393072 0 0.399129 0.00605658
frontAndBack 0 0 0 0
sum -1.33982 3.16848e-15 -4.3514e-07 -1.33983


Wall heat fluxes [W]
topAndBottom 0 0 0 0
left 2.90176 0 0 2.90176
right -3.06343 0 0 -3.06343
frontAndBack 0 0 0 0
sum -0.161667 0 0 -0.161667

Time = 30

DILUPBiCG:  Solving for Ux, Initial residual = 0.0142073, Final residual = 6.46917e-06, No Iterations 2
DILUPBiCG:  Solving for Uy, Initial residual = 0.0165498, Final residual = 0.000157357, No Iterations 1
DICPCG:  Solving for p_rgh, Initial residual = 0.0294776, Final residual = 0.000217184, No Iterations 6
time step continuity errors : sum local = 0.00102839, global = 1.08526e-16, cumulative = 1.59742e-15
DILUPBiCG:  Solving for epsilon, Initial residual = 0.0306822, Final residual = 4.52012e-05, No Iterations 2
DILUPBiCG:  Solving for k, Initial residual = 0.0588192, Final residual = 9.56394e-05, No Iterations 2
DICPCG:  Solving for G, Initial residual = 0.00405338, Final residual = 0.000324348, No Iterations 10
Before T+T solve
BiCG:  Solving for T+T, Initial residual = 0.00182895, Final residual = 0.000157007, No Iterations 3
Tres = -1.29517
TsRes = -0.152197
ExecutionTime = 0.08 s



Wall heat fluxes [W]
movingWall -0.185527 -2.93349e-17 0.190655 0.00512749
left 0.273522 -5.54976e-16 1.29984 1.57336
right -0.993903 6.11753e-15 -1.88469 -2.87859
bottom -0.389259 0 0.394195 0.00493628
frontAndBack 0 0 0 0
sum -1.29517 5.53322e-15 -8.81465e-07 -1.29517


Wall heat fluxes [W]
topAndBottom 0 0 0 0
left 2.89042 0 0 2.89042
right -3.04261 0 0 -3.04261
frontAndBack 0 0 0 0
sum -0.152197 0 0 -0.152197

Time = 31

DILUPBiCG:  Solving for Ux, Initial residual = 0.0140139, Final residual = 7.69126e-06, No Iterations 2
DILUPBiCG:  Solving for Uy, Initial residual = 0.0165352, Final residual = 0.000151222, No Iterations 1
DICPCG:  Solving for p_rgh, Initial residual = 0.0363745, Final residual = 0.000344925, No Iterations 5
time step continuity errors : sum local = 0.00192952, global = -1.61201e-16, cumulative = 1.43622e-15
DILUPBiCG:  Solving for epsilon, Initial residual = 0.029891, Final residual = 3.12347e-05, No Iterations 2
DILUPBiCG:  Solving for k, Initial residual = 0.0568231, Final residual = 9.7119e-05, No Iterations 2
DICPCG:  Solving for G, Initial residual = 0.00468119, Final residual = 0.000332536, No Iterations 12
Before T+T solve
BiCG:  Solving for T+T, Initial residual = 0.00180782, Final residual = 0.000174966, No Iterations 3
Tres = -1.25338
TsRes = -0.145715
ExecutionTime = 0.08 s



Wall heat fluxes [W]
movingWall -0.182942 -7.87695e-15 0.188327 0.0053856
left 0.29561 4.16232e-16 1.30776 1.60337
right -0.979982 8.71189e-16 -1.88836 -2.86834
bottom -0.386069 0 0.392266 0.00619616
frontAndBack 0 0 0 0
sum -1.25338 -6.58953e-15 1.32146e-07 -1.25338


Wall heat fluxes [W]
topAndBottom 0 0 0 0
left 2.87684 0 0 2.87684
right -3.02256 0 0 -3.02256
frontAndBack 0 0 0 0
sum -0.145715 0 0 -0.145715

Time = 32

DILUPBiCG:  Solving for Ux, Initial residual = 0.0142879, Final residual = 1.01805e-05, No Iterations 2
DILUPBiCG:  Solving for Uy, Initial residual = 0.0164548, Final residual = 0.000142228, No Iterations 1
DICPCG:  Solving for p_rgh, Initial residual = 0.0448853, Final residual = 0.000400217, No Iterations 5
time step continuity errors : sum local = 0.00270741, global = -8.2321e-17, cumulative = 1.3539e-15
DILUPBiCG:  Solving for epsilon, Initial residual = 0.0288612, Final residual = 2.31648e-05, No Iterations 2
DILUPBiCG:  Solving for k, Initial residual = 0.0547399, Final residual = 9.14909e-05, No Iterations 2
DICPCG:  Solving for G, Initial residual = 0.00474079, Final residual = 0.000446872, No Iterations 11
Before T+T solve
BiCG:  Solving for T+T, Initial residual = 0.00179168, Final residual = 2.82974e-05, No Iterations 4
Tres = -1.21209
TsRes = -0.137947
ExecutionTime = 0.08 s



Wall heat fluxes [W]
movingWall -0.181024 2.24335e-15 0.18569 0.00466592
left 0.317069 1.38744e-16 1.3159 1.63297
right -0.966041 -6.13141e-15 -1.88961 -2.85565
bottom -0.382093 0 0.388018 0.00592503
frontAndBack 0 0 0 0
sum -1.21209 -3.74932e-15 -6.40714e-07 -1.21209


Wall heat fluxes [W]
topAndBottom 0 0 0 0
left 2.86338 0 0 2.86338
right -3.00133 0 0 -3.00133
frontAndBack 0 0 0 0
sum -0.137947 0 0 -0.137947

Time = 33

DILUPBiCG:  Solving for Ux, Initial residual = 0.0147719, Final residual = 2.04747e-05, No Iterations 2
DILUPBiCG:  Solving for Uy, Initial residual = 0.0166226, Final residual = 0.000141045, No Iterations 1
DICPCG:  Solving for p_rgh, Initial residual = 0.0522285, Final residual = 0.000452241, No Iterations 10
time step continuity errors : sum local = 0.00204688, global = -1.8741e-16, cumulative = 1.16649e-15
DILUPBiCG:  Solving for epsilon, Initial residual = 0.0276755, Final residual = 2.23978e-05, No Iterations 2
DILUPBiCG:  Solving for k, Initial residual = 0.0523864, Final residual = 8.45749e-05, No Iterations 2
DICPCG:  Solving for G, Initial residual = 0.00474403, Final residual = 0.000318043, No Iterations 11
Before T+T solve
BiCG:  Solving for T+T, Initial residual = 0.0017007, Final residual = 9.34659e-05, No Iterations 3
Tres = -1.17225
TsRes = -0.132204
ExecutionTime = 0.08 s



Wall heat fluxes [W]
movingWall -0.179659 -1.9624e-15 0.184001 0.0043427
left 0.337011 -2.77488e-15 1.32355 1.66056
right -0.951694 -2.62589e-15 -1.89139 -2.84308
bottom -0.37791 0 0.383835 0.00592431
frontAndBack 0 0 0 0
sum -1.17225 -7.36316e-15 -2.84801e-07 -1.17225


Wall heat fluxes [W]
topAndBottom 0 0 0 0
left 2.84966 0 0 2.84966
right -2.98186 0 0 -2.98186
frontAndBack 0 0 0 0
sum -0.132204 0 0 -0.132204

Time = 34

DILUPBiCG:  Solving for Ux, Initial residual = 0.0148622, Final residual = 0.000142615, No Iterations 1
DILUPBiCG:  Solving for Uy, Initial residual = 0.0169684, Final residual = 0.000141323, No Iterations 1
DICPCG:  Solving for p_rgh, Initial residual = 0.0535448, Final residual = 0.000287575, No Iterations 5
time step continuity errors : sum local = 0.00196661, global = -1.82906e-16, cumulative = 9.83584e-16
DILUPBiCG:  Solving for epsilon, Initial residual = 0.0263389, Final residual = 2.16771e-05, No Iterations 2
DILUPBiCG:  Solving for k, Initial residual = 0.0499874, Final residual = 8.34903e-05, No Iterations 2
DICPCG:  Solving for G, Initial residual = 0.00458674, Final residual = 0.000343051, No Iterations 11
Before T+T solve
BiCG:  Solving for T+T, Initial residual = 0.00167869, Final residual = 8.62982e-05, No Iterations 3
Tres = -1.13417
TsRes = -0.127937
ExecutionTime = 0.08 s



Wall heat fluxes [W]
movingWall -0.178856 2.21735e-15 0.182909 0.00405319
left 0.355123 7.63092e-16 1.33115 1.68627
right -0.937225 -1.31379e-14 -1.89366 -2.83088
bottom -0.373213 0 0.3796 0.00638702
frontAndBack 0 0 0 0
sum -1.13417 -1.01574e-14 -4.61976e-07 -1.13417


Wall heat fluxes [W]
topAndBottom 0 0 0 0
left 2.83554 0 0 2.83554
right -2.96347 0 0 -2.96347
frontAndBack 0 0 0 0
sum -0.127937 0 0 -0.127937

Time = 35

DILUPBiCG:  Solving for Ux, Initial residual = 0.014877, Final residual = 7.11834e-06, No Iterations 2
DILUPBiCG:  Solving for Uy, Initial residual = 0.017265, Final residual = 0.000145848, No Iterations 1
DICPCG:  Solving for p_rgh, Initial residual = 0.0509379, Final residual = 0.000456122, No Iterations 5
time step continuity errors : sum local = 0.00336344, global = 1.58289e-16, cumulative = 1.14187e-15
DILUPBiCG:  Solving for epsilon, Initial residual = 0.0249147, Final residual = 2.15452e-05, No Iterations 2
DILUPBiCG:  Solving for k, Initial residual = 0.0475319, Final residual = 9.28129e-05, No Iterations 2
DICPCG:  Solving for G, Initial residual = 0.00457687, Final residual = 0.000366541, No Iterations 10
Before T+T solve
BiCG:  Solving for T+T, Initial residual = 0.00163684, Final residual = 0.000112692, No Iterations 3
Tres = -1.09799
TsRes = -0.124382
ExecutionTime = 0.08 s



Wall heat fluxes [W]
movingWall -0.178497 2.06613e-15 0.182337 0.00383958
left 0.371357 1.31807e-15 1.3387 1.71005
right -0.922798 4.376e-15 -1.89542 -2.81822
bottom -0.368056 0 0.374389 0.006333
frontAndBack 0 0 0 0
sum -1.09799 7.76019e-15 -1.83323e-07 -1.09799


Wall heat fluxes [W]
topAndBottom 0 0 0 0
left 2.82128 0 0 2.82128
right -2.94566 0 0 -2.94566
frontAndBack 0 0 0 0
sum -0.124382 0 0 -0.124382

Time = 36

DILUPBiCG:  Solving for Ux, Initial residual = 0.0147221, Final residual = 3.30288e-06, No Iterations 2
DILUPBiCG:  Solving for Uy, Initial residual = 0.0182495, Final residual = 0.000159786, No Iterations 1
DICPCG:  Solving for p_rgh, Initial residual = 0.0554451, Final residual = 0.00025377, No Iterations 9
time step continuity errors : sum local = 0.00116419, global = 3.21343e-16, cumulative = 1.46322e-15
DILUPBiCG:  Solving for epsilon, Initial residual = 0.0235045, Final residual = 2.2018e-05, No Iterations 2
DILUPBiCG:  Solving for k, Initial residual = 0.0449888, Final residual = 0.000116446, No Iterations 2
DICPCG:  Solving for G, Initial residual = 0.00445939, Final residual = 0.000132312, No Iterations 11
Before T+T solve
BiCG:  Solving for T+T, Initial residual = 0.00161372, Final residual = 0.000116163, No Iterations 3
Tres = -1.06353
TsRes = -0.122049
ExecutionTime = 0.09 s



Wall heat fluxes [W]
movingWall -0.17833 1.80693e-15 0.181985 0.00365501
left 0.385937 4.7173e-15 1.34603 1.73197
right -0.908228 6.57301e-15 -1.89709 -2.80531
bottom -0.362912 0 0.369073 0.00616107
frontAndBack 0 0 0 0
sum -1.06353 1.30972e-14 -1.29681e-07 -1.06353


Wall heat fluxes [W]
topAndBottom 0 0 0 0
left 2.80662 0 0 2.80662
right -2.92866 0 0 -2.92866
frontAndBack 0 0 0 0
sum -0.122049 0 0 -0.122049

Time = 37

DILUPBiCG:  Solving for Ux, Initial residual = 0.0150373, Final residual = 0.0001485, No Iterations 1
DILUPBiCG:  Solving for Uy, Initial residual = 0.0185714, Final residual = 0.000161692, No Iterations 1
DICPCG:  Solving for p_rgh, Initial residual = 0.0584148, Final residual = 0.000338957, No Iterations 5
time step continuity errors : sum local = 0.00228146, global = -2.13611e-16, cumulative = 1.24961e-15
DILUPBiCG:  Solving for epsilon, Initial residual = 0.0222259, Final residual = 2.60001e-05, No Iterations 2
DILUPBiCG:  Solving for k, Initial residual = 0.0429454, Final residual = 0.000141997, No Iterations 2
DICPCG:  Solving for G, Initial residual = 0.004157, Final residual = 0.000394699, No Iterations 10
Before T+T solve
BiCG:  Solving for T+T, Initial residual = 0.00158753, Final residual = 0.000143655, No Iterations 3
Tres = -1.03083
TsRes = -0.120812
ExecutionTime = 0.09 s



Wall heat fluxes [W]
movingWall -0.178351 -6.3676e-16 0.18175 0.00339907
left 0.398338 8.32464e-16 1.35311 1.75144
right -0.893507 -7.91393e-15 -1.89871 -2.79221
bottom -0.357313 0 0.36385 0.00653719
frontAndBack 0 0 0 0
sum -1.03083 -7.71823e-15 -2.82891e-07 -1.03083


Wall heat fluxes [W]
topAndBottom 0 0 0 0
left 2.79154 0 0 2.79154
right -2.91235 0 0 -2.91235
frontAndBack 0 0 0 0
sum -0.120812 0 0 -0.120812

Time = 38

DILUPBiCG:  Solving for Ux, Initial residual = 0.0146478, Final residual = 3.0737e-05, No Iterations 2
DILUPBiCG:  Solving for Uy, Initial residual = 0.019231, Final residual = 0.000169111, No Iterations 1
DICPCG:  Solving for p_rgh, Initial residual = 0.0599498, Final residual = 0.000483118, No Iterations 5
time step continuity errors : sum local = 0.00352252, global = -1.2143e-17, cumulative = 1.23746e-15
DILUPBiCG:  Solving for epsilon, Initial residual = 0.0210632, Final residual = 6.03267e-05, No Iterations 2
DILUPBiCG:  Solving for k, Initial residual = 0.041105, Final residual = 0.000159889, No Iterations 2
DICPCG:  Solving for G, Initial residual = 0.00438869, Final residual = 0.000424261, No Iterations 10
Before T+T solve
BiCG:  Solving for T+T, Initial residual = 0.0015699, Final residual = 0.000148315, No Iterations 3
Tres = -0.999528
TsRes = -0.12143
ExecutionTime = 0.09 s



Wall heat fluxes [W]
movingWall -0.17877 -1.40893e-15 0.182055 0.00328487
left 0.409028 -3.05237e-15 1.36022 1.76925
right -0.878269 4.38203e-15 -1.90019 -2.77846
bottom -0.351516 0 0.357911 0.00639415
frontAndBack 0 0 0 0
sum -0.999528 -7.9259e-17 -2.99674e-07 -0.999528


Wall heat fluxes [W]
topAndBottom 0 0 0 0
left 2.77524 0 0 2.77524
right -2.89667 0 0 -2.89667
frontAndBack 0 0 0 0
sum -0.12143 0 0 -0.12143

Time = 39

DILUPBiCG:  Solving for Ux, Initial residual = 0.0143312, Final residual = 1.88777e-06, No Iterations 2
DILUPBiCG:  Solving for Uy, Initial residual = 0.0202792, Final residual = 0.00017252, No Iterations 1
DICPCG:  Solving for p_rgh, Initial residual = 0.0642775, Final residual = 0.000315675, No Iterations 9
time step continuity errors : sum local = 0.00170751, global = -2.72374e-16, cumulative = 9.65088e-16
DILUPBiCG:  Solving for epsilon, Initial residual = 0.0197978, Final residual = 2.42478e-05, No Iterations 2
DILUPBiCG:  Solving for k, Initial residual = 0.0389708, Final residual = 0.000173045, No Iterations 2
DICPCG:  Solving for G, Initial residual = 0.00432102, Final residual = 0.000427666, No Iterations 10
Before T+T solve
BiCG:  Solving for T+T, Initial residual = 0.00156174, Final residual = 0.000138563, No Iterations 3
Tres = -0.973571
TsRes = -0.112391
ExecutionTime = 0.09 s



Wall heat fluxes [W]
movingWall -0.179104 8.55347e-16 0.182389 0.00328431
left 0.418365 -9.71208e-16 1.36713 1.78549
right -0.866929 -1.31895e-14 -1.90157 -2.7685
bottom -0.345902 0 0.352051 0.00614928
frontAndBack 0 0 0 0
sum -0.973571 -1.33054e-14 -1.65567e-07 -0.973571


Wall heat fluxes [W]
topAndBottom 0 0 0 0
left 2.76866 0 0 2.76866
right -2.88105 0 0 -2.88105
frontAndBack 0 0 0 0
sum -0.112391 0 0 -0.112391

Time = 40

DILUPBiCG:  Solving for Ux, Initial residual = 0.014874, Final residual = 1.23278e-06, No Iterations 2
DILUPBiCG:  Solving for Uy, Initial residual = 0.018991, Final residual = 0.000163426, No Iterations 1
DICPCG:  Solving for p_rgh, Initial residual = 0.0442877, Final residual = 0.000293254, No Iterations 5
time step continuity errors : sum local = 0.00203289, global = 2.54639e-16, cumulative = 1.21973e-15
DILUPBiCG:  Solving for epsilon, Initial residual = 0.0186058, Final residual = 1.55786e-05, No Iterations 2
DILUPBiCG:  Solving for k, Initial residual = 0.0373405, Final residual = 0.000153605, No Iterations 2
DICPCG:  Solving for G, Initial residual = 0.00410779, Final residual = 0.000130528, No Iterations 11
Before T+T solve
BiCG:  Solving for T+T, Initial residual = 0.00151127, Final residual = 0.0001463, No Iterations 3
Tres = -0.951888
TsRes = -0.10337
ExecutionTime = 0.09 s



Wall heat fluxes [W]
movingWall -0.179567 -5.29929e-15 0.182621 0.00305466
left 0.426072 3.4686e-16 1.37393 1.8
right -0.858223 1.75845e-14 -1.90313 -2.76135
bottom -0.340171 0 0.346577 0.00640637
frontAndBack 0 0 0 0
sum -0.951888 1.26321e-14 -1.38319e-07 -0.951888


Wall heat fluxes [W]
topAndBottom 0 0 0 0
left 2.76336 0 0 2.76336
right -2.86673 0 0 -2.86673
frontAndBack 0 0 0 0
sum -0.10337 0 0 -0.10337

Time = 41

DILUPBiCG:  Solving for Ux, Initial residual = 0.0150743, Final residual = 0.000141302, No Iterations 1
DILUPBiCG:  Solving for Uy, Initial residual = 0.0188938, Final residual = 0.000186297, No Iterations 1
DICPCG:  Solving for p_rgh, Initial residual = 0.0356043, Final residual = 0.0003311, No Iterations 5
time step continuity errors : sum local = 0.00237962, global = -2.55433e-16, cumulative = 9.64294e-16
DILUPBiCG:  Solving for epsilon, Initial residual = 0.0175231, Final residual = 1.29059e-05, No Iterations 2
DILUPBiCG:  Solving for k, Initial residual = 0.0359612, Final residual = 0.000137208, No Iterations 2
DICPCG:  Solving for G, Initial residual = 0.0036166, Final residual = 0.000245523, No Iterations 11
Before T+T solve
BiCG:  Solving for T+T, Initial residual = 0.00150356, Final residual = 0.000145977, No Iterations 3
Tres = -0.930491
TsRes = -0.0999836
ExecutionTime = 0.1 s



Wall heat fluxes [W]
movingWall -0.180356 2.9915e-15 0.18295 0.00259416
left 0.432704 -4.78667e-15 1.38038 1.81308
right -0.848526 -7.48381e-15 -1.90357 -2.7521
bottom -0.334312 0 0.340239 0.00592703
frontAndBack 0 0 0 0
sum -0.930491 -9.27898e-15 -7.67209e-07 -0.930491


Wall heat fluxes [W]
topAndBottom 0 0 0 0
left 2.75369 0 0 2.75369
right -2.85367 0 0 -2.85367
frontAndBack 0 0 0 0
sum -0.0999836 0 0 -0.0999836

Time = 42

DILUPBiCG:  Solving for Ux, Initial residual = 0.0147409, Final residual = 0.000121012, No Iterations 1
DILUPBiCG:  Solving for Uy, Initial residual = 0.0185428, Final residual = 0.000174435, No Iterations 1
DICPCG:  Solving for p_rgh, Initial residual = 0.0368147, Final residual = 0.000295894, No Iterations 10
time step continuity errors : sum local = 0.00143081, global = -8.4178e-17, cumulative = 8.80116e-16
DILUPBiCG:  Solving for epsilon, Initial residual = 0.016594, Final residual = 1.17148e-05, No Iterations 2
DILUPBiCG:  Solving for k, Initial residual = 0.0348783, Final residual = 0.000131396, No Iterations 2
DICPCG:  Solving for G, Initial residual = 0.00352195, Final residual = 0.000144218, No Iterations 11
Before T+T solve
BiCG:  Solving for T+T, Initial residual = 0.00148119, Final residual = 0.000135826, No Iterations 3
Tres = -0.910066
TsRes = -0.097853
ExecutionTime = 0.1 s



Wall heat fluxes [W]
movingWall -0.181102 5.77807e-15 0.183552 0.00244935
left 0.438585 -2.70551e-15 1.38618 1.82477
right -0.83884 -4.39026e-15 -1.90394 -2.74278
bottom -0.328708 0 0.334211 0.00550344
frontAndBack 0 0 0 0
sum -0.910066 -1.31769e-15 -4.47533e-07 -0.910067


Wall heat fluxes [W]
topAndBottom 0 0 0 0
left 2.74341 0 0 2.74341
right -2.84126 0 0 -2.84126
frontAndBack 0 0 0 0
sum -0.097853 0 0 -0.097853

Time = 43

DILUPBiCG:  Solving for Ux, Initial residual = 0.0144702, Final residual = 0.000109602, No Iterations 1
DILUPBiCG:  Solving for Uy, Initial residual = 0.0173508, Final residual = 0.000150973, No Iterations 1
DICPCG:  Solving for p_rgh, Initial residual = 0.0354821, Final residual = 0.000246082, No Iterations 5
time step continuity errors : sum local = 0.00130387, global = -1.8691e-16, cumulative = 6.93206e-16
DILUPBiCG:  Solving for epsilon, Initial residual = 0.0158356, Final residual = 1.08299e-05, No Iterations 2
DILUPBiCG:  Solving for k, Initial residual = 0.0341384, Final residual = 0.000131354, No Iterations 2
DICPCG:  Solving for G, Initial residual = 0.00319893, Final residual = 0.000285911, No Iterations 10
Before T+T solve
BiCG:  Solving for T+T, Initial residual = 0.00145803, Final residual = 0.000127463, No Iterations 3
Tres = -0.89053
TsRes = -0.0960523
ExecutionTime = 0.1 s



Wall heat fluxes [W]
movingWall -0.18167 -7.3376e-16 0.184182 0.00251229
left 0.443583 -3.4686e-16 1.39171 1.8353
right -0.82911 -7.03127e-15 -1.90466 -2.73377
bottom -0.323333 0 0.328765 0.00543207
frontAndBack 0 0 0 0
sum -0.89053 -8.11189e-15 -3.39225e-07 -0.89053


Wall heat fluxes [W]
topAndBottom 0 0 0 0
left 2.73276 0 0 2.73276
right -2.82881 0 0 -2.82881
frontAndBack 0 0 0 0
sum -0.0960523 0 0 -0.0960523

Time = 44

DILUPBiCG:  Solving for Ux, Initial residual = 0.0138197, Final residual = 9.52764e-05, No Iterations 1
DILUPBiCG:  Solving for Uy, Initial residual = 0.01673, Final residual = 0.000143613, No Iterations 1
DICPCG:  Solving for p_rgh, Initial residual = 0.0332677, Final residual = 0.000247131, No Iterations 5
time step continuity errors : sum local = 0.00116687, global = 2.5411e-17, cumulative = 7.18617e-16
DILUPBiCG:  Solving for epsilon, Initial residual = 0.0151706, Final residual = 9.86535e-06, No Iterations 2
DILUPBiCG:  Solving for k, Initial residual = 0.0333309, Final residual = 0.00012937, No Iterations 2
DICPCG:  Solving for G, Initial residual = 0.00322873, Final residual = 0.000295235, No Iterations 10
Before T+T solve
BiCG:  Solving for T+T, Initial residual = 0.00143099, Final residual = 0.000120013, No Iterations 3
Tres = -0.87156
TsRes = -0.0943232
ExecutionTime = 0.1 s



Wall heat fluxes [W]
movingWall -0.181992 7.28963e-16 0.184688 0.00269632
left 0.448145 9.71208e-16 1.39725 1.84539
right -0.819404 1.65326e-18 -1.9054 -2.7248
bottom -0.318309 0 0.323462 0.00515355
frontAndBack 0 0 0 0
sum -0.87156 1.70182e-15 -3.03323e-07 -0.87156


Wall heat fluxes [W]
topAndBottom 0 0 0 0
left 2.72216 0 0 2.72216
right -2.81648 0 0 -2.81648
frontAndBack 0 0 0 0
sum -0.0943232 0 0 -0.0943232

Time = 45

DILUPBiCG:  Solving for Ux, Initial residual = 0.0131383, Final residual = 8.85079e-05, No Iterations 1
DILUPBiCG:  Solving for Uy, Initial residual = 0.0160187, Final residual = 0.000135045, No Iterations 1
DICPCG:  Solving for p_rgh, Initial residual = 0.0311265, Final residual = 0.000253412, No Iterations 5
time step continuity errors : sum local = 0.00109621, global = 1.74701e-17, cumulative = 7.36087e-16
DILUPBiCG:  Solving for epsilon, Initial residual = 0.0145865, Final residual = 8.95118e-06, No Iterations 2
DILUPBiCG:  Solving for k, Initial residual = 0.032533, Final residual = 0.000124136, No Iterations 2
DICPCG:  Solving for G, Initial residual = 0.00312306, Final residual = 0.000144371, No Iterations 11
Before T+T solve
BiCG:  Solving for T+T, Initial residual = 0.00140394, Final residual = 0.000116197, No Iterations 3
Tres = -0.853013
TsRes = -0.0924939
ExecutionTime = 0.11 s



Wall heat fluxes [W]
movingWall -0.182009 1.42125e-15 0.184796 0.00278721
left 0.452362 2.77488e-16 1.40274 1.8551
right -0.809629 -3.89366e-18 -1.90622 -2.71584
bottom -0.313737 0 0.318678 0.0049402
frontAndBack 0 0 0 0
sum -0.853013 1.69485e-15 -1.3686e-07 -0.853013


Wall heat fluxes [W]
topAndBottom 0 0 0 0
left 2.71167 0 0 2.71167
right -2.80416 0 0 -2.80416
frontAndBack 0 0 0 0
sum -0.0924939 0 0 -0.0924939

Time = 46

DILUPBiCG:  Solving for Ux, Initial residual = 0.0124752, Final residual = 8.34358e-05, No Iterations 1
DILUPBiCG:  Solving for Uy, Initial residual = 0.0153037, Final residual = 0.000126747, No Iterations 1
DICPCG:  Solving for p_rgh, Initial residual = 0.0288689, Final residual = 0.000259152, No Iterations 5
time step continuity errors : sum local = 0.00117589, global = -6.96155e-17, cumulative = 6.66472e-16
DILUPBiCG:  Solving for epsilon, Initial residual = 0.0140359, Final residual = 8.16178e-06, No Iterations 2
DILUPBiCG:  Solving for k, Initial residual = 0.0319176, Final residual = 0.000118243, No Iterations 2
DICPCG:  Solving for G, Initial residual = 0.00296174, Final residual = 0.000294622, No Iterations 10
Before T+T solve
BiCG:  Solving for T+T, Initial residual = 0.00137947, Final residual = 0.000114467, No Iterations 3
Tres = -0.834773
TsRes = -0.0907042
ExecutionTime = 0.11 s



Wall heat fluxes [W]
movingWall -0.181783 2.11088e-15 0.18466 0.00287766
left 0.456411 2.01179e-15 1.40817 1.86458
right -0.799802 -8.80281e-15 -1.90709 -2.70689
bottom -0.309599 0 0.314257 0.00465797
frontAndBack 0 0 0 0
sum -0.834773 -4.68014e-15 -4.53783e-07 -0.834773


Wall heat fluxes [W]
topAndBottom 0 0 0 0
left 2.70138 0 0 2.70138
right -2.79209 0 0 -2.79209
frontAndBack 0 0 0 0
sum -0.0907042 0 0 -0.0907042

Time = 47

DILUPBiCG:  Solving for Ux, Initial residual = 0.0119065, Final residual = 8.16171e-05, No Iterations 1
DILUPBiCG:  Solving for Uy, Initial residual = 0.014516, Final residual = 0.000119418, No Iterations 1
DICPCG:  Solving for p_rgh, Initial residual = 0.026761, Final residual = 9.51092e-05, No Iterations 6
time step continuity errors : sum local = 0.000665686, global = 9.60853e-17, cumulative = 7.62557e-16
DILUPBiCG:  Solving for epsilon, Initial residual = 0.013474, Final residual = 7.46479e-06, No Iterations 2
DILUPBiCG:  Solving for k, Initial residual = 0.0312053, Final residual = 0.000112871, No Iterations 2
DICPCG:  Solving for G, Initial residual = 0.00301194, Final residual = 0.000201708, No Iterations 11
Before T+T solve
BiCG:  Solving for T+T, Initial residual = 0.0013565, Final residual = 0.000115416, No Iterations 3
Tres = -0.816698
TsRes = -0.0887288
ExecutionTime = 0.11 s



Wall heat fluxes [W]
movingWall -0.181316 -5.04065e-15 0.184226 0.00291018
left 0.4605 -3.81546e-15 1.41349 1.87399
right -0.790007 1.71746e-14 -1.90799 -2.698
bottom -0.305875 0 0.310281 0.00440651
frontAndBack 0 0 0 0
sum -0.816698 8.31847e-15 -2.5295e-07 -0.816699


Wall heat fluxes [W]
topAndBottom 0 0 0 0
left 2.69147 0 0 2.69147
right -2.7802 0 0 -2.7802
frontAndBack 0 0 0 0
sum -0.0887288 0 0 -0.0887288

Time = 48

DILUPBiCG:  Solving for Ux, Initial residual = 0.0114439, Final residual = 8.01358e-05, No Iterations 1
DILUPBiCG:  Solving for Uy, Initial residual = 0.0137793, Final residual = 0.000112945, No Iterations 1
DICPCG:  Solving for p_rgh, Initial residual = 0.0247123, Final residual = 0.000203383, No Iterations 6
time step continuity errors : sum local = 0.00136643, global = 1.88465e-16, cumulative = 9.51022e-16
DILUPBiCG:  Solving for epsilon, Initial residual = 0.0128153, Final residual = 6.94147e-06, No Iterations 2
DILUPBiCG:  Solving for k, Initial residual = 0.0303691, Final residual = 0.000106798, No Iterations 2
DICPCG:  Solving for G, Initial residual = 0.00287134, Final residual = 0.000262062, No Iterations 11
Before T+T solve
BiCG:  Solving for T+T, Initial residual = 0.00133367, Final residual = 0.00011527, No Iterations 3
Tres = -0.798768
TsRes = -0.0868369
ExecutionTime = 0.11 s



Wall heat fluxes [W]
movingWall -0.180637 -2.94956e-15 0.183602 0.00296444
left 0.464659 5.89662e-15 1.41867 1.88333
right -0.780257 6.17096e-15 -1.90895 -2.68921
bottom -0.302533 0 0.30668 0.00414742
frontAndBack 0 0 0 0
sum -0.798768 9.11802e-15 -2.74242e-07 -0.798768


Wall heat fluxes [W]
topAndBottom 0 0 0 0
left 2.68182 0 0 2.68182
right -2.76866 0 0 -2.76866
frontAndBack 0 0 0 0
sum -0.0868369 0 0 -0.0868369

Time = 49

DILUPBiCG:  Solving for Ux, Initial residual = 0.0109511, Final residual = 7.9126e-05, No Iterations 1
DILUPBiCG:  Solving for Uy, Initial residual = 0.0132542, Final residual = 0.000109723, No Iterations 1
DICPCG:  Solving for p_rgh, Initial residual = 0.0227873, Final residual = 0.000219332, No Iterations 10
time step continuity errors : sum local = 0.000952277, global = -1.19114e-16, cumulative = 8.31908e-16
DILUPBiCG:  Solving for epsilon, Initial residual = 0.0118934, Final residual = 6.69997e-06, No Iterations 2
DILUPBiCG:  Solving for k, Initial residual = 0.0292579, Final residual = 9.83886e-05, No Iterations 2
DICPCG:  Solving for G, Initial residual = 0.00283062, Final residual = 0.000227506, No Iterations 11
Before T+T solve
BiCG:  Solving for T+T, Initial residual = 0.00131104, Final residual = 0.000117994, No Iterations 3
Tres = -0.781003
TsRes = -0.0847805
ExecutionTime = 0.11 s



Wall heat fluxes [W]
movingWall -0.179724 -1.07268e-15 0.18272 0.00299558
left 0.468872 -1.45681e-15 1.42371 1.89258
right -0.770655 -2.19935e-15 -1.90987 -2.68053
bottom -0.299495 0 0.303447 0.00395202
frontAndBack 0 0 0 0
sum -0.781003 -4.72884e-15 -4.19876e-07 -0.781003


Wall heat fluxes [W]
topAndBottom 0 0 0 0
left 2.6726 0 0 2.6726
right -2.75738 0 0 -2.75738
frontAndBack 0 0 0 0
sum -0.0847805 0 0 -0.0847805

Time = 50

DILUPBiCG:  Solving for Ux, Initial residual = 0.0103058, Final residual = 7.31322e-05, No Iterations 1
DILUPBiCG:  Solving for Uy, Initial residual = 0.0128748, Final residual = 0.0001075, No Iterations 1
DICPCG:  Solving for p_rgh, Initial residual = 0.0210928, Final residual = 8.37546e-05, No Iterations 6
time step continuity errors : sum local = 0.00058077, global = 3.13402e-16, cumulative = 1.14531e-15
DILUPBiCG:  Solving for epsilon, Initial residual = 0.0110828, Final residual = 6.43331e-06, No Iterations 2
DILUPBiCG:  Solving for k, Initial residual = 0.0279862, Final residual = 9.35501e-05, No Iterations 2
DICPCG:  Solving for G, Initial residual = 0.00275416, Final residual = 0.000197646, No Iterations 11
Before T+T solve
BiCG:  Solving for T+T, Initial residual = 0.00128627, Final residual = 0.00011635, No Iterations 3
Tres = -0.763226
TsRes = -0.0827458
ExecutionTime = 0.12 s



Wall heat fluxes [W]
movingWall -0.178633 1.59835e-15 0.18167 0.00303615
left 0.473503 7.56155e-15 1.42863 1.90213
right -0.761257 4.40882e-15 -1.9108 -2.67205
bottom -0.296838 0 0.300495 0.00365681
frontAndBack 0 0 0 0
sum -0.763226 1.35687e-14 9.00779e-08 -0.763226


Wall heat fluxes [W]
topAndBottom 0 0 0 0
left 2.66374 0 0 2.66374
right -2.74648 0 0 -2.74648
frontAndBack 0 0 0 0
sum -0.0827458 0 0 -0.0827458

Time = 51

DILUPBiCG:  Solving for Ux, Initial residual = 0.0100419, Final residual = 7.55071e-05, No Iterations 1
DILUPBiCG:  Solving for Uy, Initial residual = 0.0124485, Final residual = 0.000104796, No Iterations 1
DICPCG:  Solving for p_rgh, Initial residual = 0.0198941, Final residual = 0.000172653, No Iterations 6
time step continuity errors : sum local = 0.00115409, global = -8.47033e-18, cumulative = 1.13684e-15
DILUPBiCG:  Solving for epsilon, Initial residual = 0.0104786, Final residual = 6.17148e-06, No Iterations 2
DILUPBiCG:  Solving for k, Initial residual = 0.0267386, Final residual = 9.13411e-05, No Iterations 2
DICPCG:  Solving for G, Initial residual = 0.002627, Final residual = 0.000186125, No Iterations 12
Before T+T solve
BiCG:  Solving for T+T, Initial residual = 0.00127149, Final residual = 0.000118986, No Iterations 3
Tres = -0.745572
TsRes = -0.0804363
ExecutionTime = 0.12 s



Wall heat fluxes [W]
movingWall -0.177327 3.42519e-15 0.180356 0.00302852
left 0.478442 2.983e-15 1.43337 1.91182
right -0.752188 -8.81897e-15 -1.91168 -2.66387
bottom -0.294498 0 0.297948 0.00344963
frontAndBack 0 0 0 0
sum -0.745572 -2.41078e-15 1.09738e-08 -0.745572


Wall heat fluxes [W]
topAndBottom 0 0 0 0
left 2.65544 0 0 2.65544
right -2.73588 0 0 -2.73588
frontAndBack 0 0 0 0
sum -0.0804363 0 0 -0.0804363

Time = 52

DILUPBiCG:  Solving for Ux, Initial residual = 0.00964678, Final residual = 7.51143e-05, No Iterations 1
DILUPBiCG:  Solving for Uy, Initial residual = 0.0123888, Final residual = 0.000108826, No Iterations 1
DICPCG:  Solving for p_rgh, Initial residual = 0.0189396, Final residual = 8.64973e-05, No Iterations 11
time step continuity errors : sum local = 0.000370758, global = 1.03762e-16, cumulative = 1.2406e-15
DILUPBiCG:  Solving for epsilon, Initial residual = 0.00993005, Final residual = 5.85937e-06, No Iterations 2
DILUPBiCG:  Solving for k, Initial residual = 0.0256332, Final residual = 9.05159e-05, No Iterations 2
DICPCG:  Solving for G, Initial residual = 0.00254747, Final residual = 0.000181423, No Iterations 11
Before T+T solve
BiCG:  Solving for T+T, Initial residual = 0.00124026, Final residual = 0.000114835, No Iterations 3
Tres = -0.728171
TsRes = -0.0779949
ExecutionTime = 0.12 s



Wall heat fluxes [W]
movingWall -0.175859 2.01342e-15 0.178919 0.00305957
left 0.483596 1.2487e-15 1.43798 1.92157
right -0.743528 1.76669e-15 -1.91257 -2.6561
bottom -0.29238 0 0.295674 0.00329372
frontAndBack 0 0 0 0
sum -0.728171 5.0288e-15 -7.92769e-09 -0.728171


Wall heat fluxes [W]
topAndBottom 0 0 0 0
left 2.64766 0 0 2.64766
right -2.72566 0 0 -2.72566
frontAndBack 0 0 0 0
sum -0.0779949 0 0 -0.0779949

Time = 53

DILUPBiCG:  Solving for Ux, Initial residual = 0.0092079, Final residual = 7.06983e-05, No Iterations 1
DILUPBiCG:  Solving for Uy, Initial residual = 0.0119802, Final residual = 0.000104473, No Iterations 1
DICPCG:  Solving for p_rgh, Initial residual = 0.018149, Final residual = 0.000110957, No Iterations 6
time step continuity errors : sum local = 0.000760142, global = 1.16467e-17, cumulative = 1.25225e-15
DILUPBiCG:  Solving for epsilon, Initial residual = 0.00941197, Final residual = 5.51158e-06, No Iterations 2
DILUPBiCG:  Solving for k, Initial residual = 0.0244919, Final residual = 9.29143e-05, No Iterations 2
DICPCG:  Solving for G, Initial residual = 0.00247926, Final residual = 0.000175183, No Iterations 11
Before T+T solve
BiCG:  Solving for T+T, Initial residual = 0.00122605, Final residual = 0.000117032, No Iterations 3
Tres = -0.710866
TsRes = -0.0753766
ExecutionTime = 0.12 s



Wall heat fluxes [W]
movingWall -0.174219 2.30451e-15 0.177291 0.00307204
left 0.489182 -2.983e-15 1.44245 1.93163
right -0.735307 2.20779e-15 -1.91333 -2.64863
bottom -0.290522 0 0.293582 0.00306059
frontAndBack 0 0 0 0
sum -0.710866 1.52931e-15 -2.88805e-07 -0.710867


Wall heat fluxes [W]
topAndBottom 0 0 0 0
left 2.64039 0 0 2.64039
right -2.71577 0 0 -2.71577
frontAndBack 0 0 0 0
sum -0.0753766 0 0 -0.0753766

Time = 54

DILUPBiCG:  Solving for Ux, Initial residual = 0.00890993, Final residual = 7.20375e-05, No Iterations 1
DILUPBiCG:  Solving for Uy, Initial residual = 0.0118442, Final residual = 0.00010848, No Iterations 1
DICPCG:  Solving for p_rgh, Initial residual = 0.0175412, Final residual = 6.92473e-05, No Iterations 11
time step continuity errors : sum local = 0.000294787, global = -8.62915e-17, cumulative = 1.16596e-15
DILUPBiCG:  Solving for epsilon, Initial residual = 0.00892809, Final residual = 5.12606e-06, No Iterations 2
DILUPBiCG:  Solving for k, Initial residual = 0.0234474, Final residual = 9.6412e-05, No Iterations 2
DICPCG:  Solving for G, Initial residual = 0.00240024, Final residual = 0.000165143, No Iterations 12
Before T+T solve
BiCG:  Solving for T+T, Initial residual = 0.00119291, Final residual = 0.000111652, No Iterations 3
Tres = -0.693899
TsRes = -0.0725784
ExecutionTime = 0.13 s



Wall heat fluxes [W]
movingWall -0.172422 -3.68099e-15 0.175494 0.00307137
left 0.494987 -2.77488e-16 1.44678 1.94177
right -0.727629 1.76711e-15 -1.91408 -2.64171
bottom -0.288835 0 0.291809 0.00297338
frontAndBack 0 0 0 0
sum -0.693899 -2.19137e-15 1.4206e-07 -0.693899


Wall heat fluxes [W]
topAndBottom 0 0 0 0
left 2.6337 0 0 2.6337
right -2.70628 0 0 -2.70628
frontAndBack 0 0 0 0
sum -0.0725784 0 0 -0.0725784

Time = 55

DILUPBiCG:  Solving for Ux, Initial residual = 0.00864286, Final residual = 7.04812e-05, No Iterations 1
DILUPBiCG:  Solving for Uy, Initial residual = 0.0114706, Final residual = 0.000104958, No Iterations 1
DICPCG:  Solving for p_rgh, Initial residual = 0.0168313, Final residual = 0.000102993, No Iterations 6
time step continuity errors : sum local = 0.000702976, global = 6.98802e-17, cumulative = 1.23584e-15
DILUPBiCG:  Solving for epsilon, Initial residual = 0.00837959, Final residual = 4.78818e-06, No Iterations 2
DILUPBiCG:  Solving for k, Initial residual = 0.0223318, Final residual = 0.000105905, No Iterations 2
DICPCG:  Solving for G, Initial residual = 0.00232086, Final residual = 0.000142457, No Iterations 12
Before T+T solve
BiCG:  Solving for T+T, Initial residual = 0.001177, Final residual = 0.000113227, No Iterations 3
Tres = -0.677139
TsRes = -0.0696609
ExecutionTime = 0.13 s



Wall heat fluxes [W]
movingWall -0.170513 -2.06317e-15 0.173583 0.0030702
left 0.501157 2.01179e-15 1.45099 1.95215
right -0.720485 2.20409e-15 -1.91467 -2.63516
bottom -0.287298 0 0.290094 0.00279609
frontAndBack 0 0 0 0
sum -0.677139 2.15271e-15 2.00476e-07 -0.677139


Wall heat fluxes [W]
topAndBottom 0 0 0 0
left 2.62749 0 0 2.62749
right -2.69715 0 0 -2.69715
frontAndBack 0 0 0 0
sum -0.0696609 0 0 -0.0696609

Time = 56

DILUPBiCG:  Solving for Ux, Initial residual = 0.0083162, Final residual = 7.21866e-05, No Iterations 1
DILUPBiCG:  Solving for Uy, Initial residual = 0.0112704, Final residual = 0.000112297, No Iterations 1
DICPCG:  Solving for p_rgh, Initial residual = 0.0170936, Final residual = 0.000159559, No Iterations 10
time step continuity errors : sum local = 0.000664267, global = 1.27584e-16, cumulative = 1.36342e-15
DILUPBiCG:  Solving for epsilon, Initial residual = 0.00790692, Final residual = 4.35722e-06, No Iterations 2
DILUPBiCG:  Solving for k, Initial residual = 0.0211683, Final residual = 0.000109445, No Iterations 2
DICPCG:  Solving for G, Initial residual = 0.00223488, Final residual = 0.000138977, No Iterations 12
Before T+T solve
BiCG:  Solving for T+T, Initial residual = 0.0011429, Final residual = 0.000107841, No Iterations 3
Tres = -0.660783
TsRes = -0.0665572
ExecutionTime = 0.13 s



Wall heat fluxes [W]
movingWall -0.168443 1.09729e-15 0.171547 0.00310438
left 0.507469 -4.16232e-16 1.45508 1.96255
right -0.713955 5.29773e-15 -1.91523 -2.62919
bottom -0.285854 0 0.288605 0.00275042
frontAndBack 0 0 0 0
sum -0.660783 5.97879e-15 1.91257e-07 -0.660783


Wall heat fluxes [W]
topAndBottom 0 0 0 0
left 2.62191 0 0 2.62191
right -2.68847 0 0 -2.68847
frontAndBack 0 0 0 0
sum -0.0665572 0 0 -0.0665572

Time = 57

DILUPBiCG:  Solving for Ux, Initial residual = 0.0081991, Final residual = 7.08452e-05, No Iterations 1
DILUPBiCG:  Solving for Uy, Initial residual = 0.0106178, Final residual = 0.000104524, No Iterations 1
DICPCG:  Solving for p_rgh, Initial residual = 0.0176278, Final residual = 9.40383e-05, No Iterations 6
time step continuity errors : sum local = 0.000642015, global = -5.29396e-19, cumulative = 1.36289e-15
DILUPBiCG:  Solving for epsilon, Initial residual = 0.00754085, Final residual = 3.85721e-06, No Iterations 2
DILUPBiCG:  Solving for k, Initial residual = 0.0198802, Final residual = 0.000112705, No Iterations 2
DICPCG:  Solving for G, Initial residual = 0.00219001, Final residual = 0.00014216, No Iterations 12
Before T+T solve
BiCG:  Solving for T+T, Initial residual = 0.00112743, Final residual = 0.000109482, No Iterations 3
Tres = -0.644571
TsRes = -0.0635354
ExecutionTime = 0.13 s



Wall heat fluxes [W]
movingWall -0.166236 -1.08493e-15 0.169363 0.00312734
left 0.514075 3.88483e-15 1.45909 1.97316
right -0.707922 -3.53494e-15 -1.91557 -2.6235
bottom -0.284488 0 0.287126 0.00263827
frontAndBack 0 0 0 0
sum -0.644571 -7.35031e-16 1.8742e-07 -0.64457


Wall heat fluxes [W]
topAndBottom 0 0 0 0
left 2.61667 0 0 2.61667
right -2.6802 0 0 -2.6802
frontAndBack 0 0 0 0
sum -0.0635354 0 0 -0.0635354

Time = 58

DILUPBiCG:  Solving for Ux, Initial residual = 0.00795251, Final residual = 7.20514e-05, No Iterations 1
DILUPBiCG:  Solving for Uy, Initial residual = 0.0104288, Final residual = 1.51519e-06, No Iterations 2
DICPCG:  Solving for p_rgh, Initial residual = 0.018272, Final residual = 7.97969e-05, No Iterations 9
time step continuity errors : sum local = 0.000321295, global = 5.86306e-17, cumulative = 1.42152e-15
DILUPBiCG:  Solving for epsilon, Initial residual = 0.00717997, Final residual = 3.40249e-06, No Iterations 2
DILUPBiCG:  Solving for k, Initial residual = 0.0186791, Final residual = 0.000112297, No Iterations 2
DICPCG:  Solving for G, Initial residual = 0.00214557, Final residual = 0.000139877, No Iterations 12
Before T+T solve
BiCG:  Solving for T+T, Initial residual = 0.00109606, Final residual = 0.00010306, No Iterations 3
Tres = -0.628683
TsRes = -0.0607337
ExecutionTime = 0.14 s



Wall heat fluxes [W]
movingWall -0.163916 -2.93308e-15 0.167044 0.0031281
left 0.520748 2.2199e-15 1.463 1.98375
right -0.702366 3.53289e-15 -1.91583 -2.61819
bottom -0.283149 0 0.285781 0.00263221
frontAndBack 0 0 0 0
sum -0.628683 2.81972e-15 1.80973e-07 -0.628683


Wall heat fluxes [W]
topAndBottom 0 0 0 0
left 2.61163 0 0 2.61163
right -2.67237 0 0 -2.67237
frontAndBack 0 0 0 0
sum -0.0607337 0 0 -0.0607337

Time = 59

DILUPBiCG:  Solving for Ux, Initial residual = 0.00774743, Final residual = 7.0149e-05, No Iterations 1
DILUPBiCG:  Solving for Uy, Initial residual = 0.00985555, Final residual = 1.37349e-06, No Iterations 2
DICPCG:  Solving for p_rgh, Initial residual = 0.0181199, Final residual = 0.00015974, No Iterations 5
time step continuity errors : sum local = 0.000843529, global = -2.64698e-18, cumulative = 1.41888e-15
DILUPBiCG:  Solving for epsilon, Initial residual = 0.00680864, Final residual = 3.06098e-06, No Iterations 2
DILUPBiCG:  Solving for k, Initial residual = 0.0174456, Final residual = 0.000115768, No Iterations 2
[...]
DILUPBiCG:  Solving for k, Initial residual = 1.4846e-12, Final residual = 2.80004e-15, No Iterations 2
DICPCG:  Solving for G, Initial residual = 1.47598e-12, Final residual = 1.07216e-13, No Iterations 10
Before T+T solve
BiCG:  Solving for T+T, Initial residual = 2.26987e-13, Final residual = 1.98694e-14, No Iterations 3
Tres = -1.05357e-10
TsRes = -1.05267e-11
ExecutionTime = 2.34 s



Wall heat fluxes [W]
movingWall -0.0465727 -2.35605e-16 0.0465727 6.72691e-13
left 0.768847 -2.08116e-15 1.63854 2.40738
right -0.52566 3.56513e-15 -1.88173 -2.40738
bottom -0.196614 0 0.196614 5.41039e-13
frontAndBack 0 0 0 0
sum -1.05359e-10 1.24837e-15 7.5373e-13 -1.04604e-10


Wall heat fluxes [W]
topAndBottom 0 0 0 0
left 2.40738 0 0 2.40738
right -2.40738 0 0 -2.40738
frontAndBack 0 0 0 0
sum -1.05271e-11 0 0 -1.05271e-11

Time = 987

DILUPBiCG:  Solving for Ux, Initial residual = 1.06889e-12, Final residual = 9.22035e-15, No Iterations 1
DILUPBiCG:  Solving for Uy, Initial residual = 1.35694e-12, Final residual = 1.18256e-14, No Iterations 2
DICPCG:  Solving for p_rgh, Initial residual = 1.7753e-12, Final residual = 1.48116e-14, No Iterations 5
time step continuity errors : sum local = 9.68212e-14, global = 2.09641e-16, cumulative = -1.45565e-15
DILUPBiCG:  Solving for epsilon, Initial residual = 7.22424e-13, Final residual = 3.05639e-16, No Iterations 2
DILUPBiCG:  Solving for k, Initial residual = 1.44931e-12, Final residual = 2.74552e-15, No Iterations 2
DICPCG:  Solving for G, Initial residual = 1.71007e-12, Final residual = 8.81414e-14, No Iterations 10
Before T+T solve
BiCG:  Solving for T+T, Initial residual = 2.2286e-13, Final residual = 1.7043e-14, No Iterations 3
Tres = -1.02628e-10
TsRes = -9.87143e-12
ExecutionTime = 2.34 s



Wall heat fluxes [W]
movingWall -0.0465727 1.20798e-15 0.0465727 5.22346e-13
left 0.768847 2.77488e-16 1.63854 2.40738
right -0.52566 6.68052e-15 -1.88173 -2.40738
bottom -0.196614 0 0.196614 4.03816e-13
frontAndBack 0 0 0 0
sum -1.02636e-10 8.16599e-15 2.12635e-13 -1.02415e-10


Wall heat fluxes [W]
topAndBottom 0 0 0 0
left 2.40738 0 0 2.40738
right -2.40738 0 0 -2.40738
frontAndBack 0 0 0 0
sum -9.87121e-12 0 0 -9.87121e-12

Time = 988

DILUPBiCG:  Solving for Ux, Initial residual = 9.92932e-13, Final residual = 8.85119e-15, No Iterations 1
DILUPBiCG:  Solving for Uy, Initial residual = 1.46731e-12, Final residual = 5.00387e-16, No Iterations 2
DICPCG:  Solving for p_rgh, Initial residual = 1.73483e-12, Final residual = 4.89702e-15, No Iterations 11
time step continuity errors : sum local = 2.10997e-14, global = 9.88646e-17, cumulative = -1.35679e-15
DILUPBiCG:  Solving for epsilon, Initial residual = 7.05259e-13, Final residual = 2.97224e-16, No Iterations 2
DILUPBiCG:  Solving for k, Initial residual = 1.41633e-12, Final residual = 2.67071e-15, No Iterations 2
DICPCG:  Solving for G, Initial residual = 1.44435e-12, Final residual = 1.16652e-13, No Iterations 10
Before T+T solve
BiCG:  Solving for T+T, Initial residual = 2.15111e-13, Final residual = 1.78608e-14, No Iterations 3
Tres = -1.00278e-10
TsRes = -9.01976e-12
ExecutionTime = 2.35 s



Wall heat fluxes [W]
movingWall -0.0465727 -7.36508e-16 0.0465727 6.70214e-13
left 0.768847 4.43981e-15 1.63854 2.40738
right -0.52566 -4.45655e-16 -1.88173 -2.40738
bottom -0.196614 0 0.196614 5.63161e-13
frontAndBack 0 0 0 0
sum -1.00281e-10 3.25765e-15 4.26575e-13 -9.98508e-11


Wall heat fluxes [W]
topAndBottom 0 0 0 0
left 2.40738 0 0 2.40738
right -2.40738 0 0 -2.40738
frontAndBack 0 0 0 0
sum -9.01945e-12 0 0 -9.01945e-12

Time = 989

DILUPBiCG:  Solving for Ux, Initial residual = 9.7972e-13, Final residual = 8.57865e-15, No Iterations 1
DILUPBiCG:  Solving for Uy, Initial residual = 1.23937e-12, Final residual = 4.29451e-15, No Iterations 2
DICPCG:  Solving for p_rgh, Initial residual = 1.66773e-12, Final residual = 1.16121e-14, No Iterations 5
time step continuity errors : sum local = 6.86893e-14, global = 9.39677e-17, cumulative = -1.26282e-15
DILUPBiCG:  Solving for epsilon, Initial residual = 6.88425e-13, Final residual = 2.88884e-16, No Iterations 2
DILUPBiCG:  Solving for k, Initial residual = 1.38045e-12, Final residual = 2.6012e-15, No Iterations 2
DICPCG:  Solving for G, Initial residual = 1.57871e-12, Final residual = 1.19554e-13, No Iterations 9
Before T+T solve
BiCG:  Solving for T+T, Initial residual = 2.10002e-13, Final residual = 1.68089e-14, No Iterations 3
Tres = -9.79196e-11
TsRes = -8.56895e-12
ExecutionTime = 2.35 s



Wall heat fluxes [W]
movingWall -0.0465727 -3.33798e-15 0.0465727 6.32501e-13
left 0.768847 5.41102e-15 1.63854 2.40738
right -0.52566 1.3377e-15 -1.88173 -2.40738
bottom -0.196614 0 0.196614 5.27356e-13
frontAndBack 0 0 0 0
sum -9.79226e-11 3.41074e-15 5.2397e-13 -9.73952e-11


Wall heat fluxes [W]
topAndBottom 0 0 0 0
left 2.40738 0 0 2.40738
right -2.40738 0 0 -2.40738
frontAndBack 0 0 0 0
sum -8.56915e-12 0 0 -8.56915e-12

Time = 990

DILUPBiCG:  Solving for Ux, Initial residual = 9.57238e-13, Final residual = 8.41969e-15, No Iterations 1
DILUPBiCG:  Solving for Uy, Initial residual = 1.23921e-12, Final residual = 3.57112e-15, No Iterations 2
DICPCG:  Solving for p_rgh, Initial residual = 1.63167e-12, Final residual = 1.3645e-14, No Iterations 5
time step continuity errors : sum local = 9.0502e-14, global = 1.18849e-16, cumulative = -1.14397e-15
DILUPBiCG:  Solving for epsilon, Initial residual = 6.70935e-13, Final residual = 2.82523e-16, No Iterations 2
DILUPBiCG:  Solving for k, Initial residual = 1.34677e-12, Final residual = 2.54652e-15, No Iterations 2
DICPCG:  Solving for G, Initial residual = 1.27106e-12, Final residual = 1.06544e-13, No Iterations 9
Before T+T solve
BiCG:  Solving for T+T, Initial residual = 2.05247e-13, Final residual = 1.74037e-14, No Iterations 3
Tres = -9.56038e-11
TsRes = -8.30788e-12
ExecutionTime = 2.35 s



Wall heat fluxes [W]
movingWall -0.0465727 -3.02297e-16 0.0465727 6.10435e-13
left 0.768847 3.19111e-15 1.63854 2.40738
right -0.52566 7.35998e-19 -1.88173 -2.40738
bottom -0.196614 0 0.196614 5.05623e-13
frontAndBack 0 0 0 0
sum -9.56068e-11 2.88955e-15 5.414e-13 -9.50625e-11


Wall heat fluxes [W]
topAndBottom 0 0 0 0
left 2.40738 0 0 2.40738
right -2.40738 0 0 -2.40738
frontAndBack 0 0 0 0
sum -8.30758e-12 0 0 -8.30758e-12

Time = 991

DILUPBiCG:  Solving for Ux, Initial residual = 9.36033e-13, Final residual = 8.28546e-15, No Iterations 1
DILUPBiCG:  Solving for Uy, Initial residual = 1.22994e-12, Final residual = 1.91997e-15, No Iterations 2
DICPCG:  Solving for p_rgh, Initial residual = 1.60291e-12, Final residual = 4.59783e-15, No Iterations 11
time step continuity errors : sum local = 1.95549e-14, global = 9.72764e-17, cumulative = -1.0467e-15
DILUPBiCG:  Solving for epsilon, Initial residual = 6.56204e-13, Final residual = 2.75757e-16, No Iterations 2
DILUPBiCG:  Solving for k, Initial residual = 1.31542e-12, Final residual = 2.47326e-15, No Iterations 2
DICPCG:  Solving for G, Initial residual = 1.27565e-12, Final residual = 9.05861e-14, No Iterations 10
Before T+T solve
BiCG:  Solving for T+T, Initial residual = 2.00943e-13, Final residual = 1.8776e-14, No Iterations 2
Tres = -9.30882e-11
TsRes = -8.87006e-12
ExecutionTime = 2.35 s



Wall heat fluxes [W]
movingWall -0.0465727 3.06181e-15 0.0465727 5.02785e-13
left 0.768847 4.16232e-16 1.63854 2.40738
right -0.52566 1.3371e-15 -1.88173 -2.40738
bottom -0.196614 0 0.196614 3.96599e-13
frontAndBack 0 0 0 0
sum -9.30946e-11 4.81514e-15 -1.36446e-13 -9.32262e-11


Wall heat fluxes [W]
topAndBottom 0 0 0 0
left 2.40738 0 0 2.40738
right -2.40738 0 0 -2.40738
frontAndBack 0 0 0 0
sum -8.87024e-12 0 0 -8.87024e-12

Time = 992

DILUPBiCG:  Solving for Ux, Initial residual = 9.19585e-13, Final residual = 8.03273e-15, No Iterations 1
DILUPBiCG:  Solving for Uy, Initial residual = 1.29383e-12, Final residual = 3.00033e-16, No Iterations 2
DICPCG:  Solving for p_rgh, Initial residual = 1.59847e-12, Final residual = 1.13049e-14, No Iterations 5
time step continuity errors : sum local = 6.43925e-14, global = -8.99973e-17, cumulative = -1.13669e-15
DILUPBiCG:  Solving for epsilon, Initial residual = 6.39556e-13, Final residual = 2.68918e-16, No Iterations 2
DILUPBiCG:  Solving for k, Initial residual = 1.28319e-12, Final residual = 2.41891e-15, No Iterations 2
DICPCG:  Solving for G, Initial residual = 1.40492e-12, Final residual = 8.31628e-14, No Iterations 10
Before T+T solve
BiCG:  Solving for T+T, Initial residual = 1.959e-13, Final residual = 1.73743e-14, No Iterations 3
Tres = -9.10303e-11
TsRes = -8.70361e-12
ExecutionTime = 2.36 s



Wall heat fluxes [W]
movingWall -0.0465727 -7.73032e-17 0.0465727 6.48051e-13
left 0.768847 -1.66493e-15 1.63854 2.40738
right -0.52566 -2.22511e-15 -1.88173 -2.40738
bottom -0.196614 0 0.196614 5.50338e-13
frontAndBack 0 0 0 0
sum -9.10269e-11 -3.96734e-15 4.1861e-13 -9.06123e-11


Wall heat fluxes [W]
topAndBottom 0 0 0 0
left 2.40738 0 0 2.40738
right -2.40738 0 0 -2.40738
frontAndBack 0 0 0 0
sum -8.70326e-12 0 0 -8.70326e-12

Time = 993

DILUPBiCG:  Solving for Ux, Initial residual = 9.24381e-13, Final residual = 7.96805e-15, No Iterations 1
DILUPBiCG:  Solving for Uy, Initial residual = 1.09553e-12, Final residual = 4.93918e-16, No Iterations 2
DICPCG:  Solving for p_rgh, Initial residual = 1.53332e-12, Final residual = 1.26513e-14, No Iterations 5
time step continuity errors : sum local = 8.26683e-14, global = 9.95264e-17, cumulative = -1.03717e-15
DILUPBiCG:  Solving for epsilon, Initial residual = 6.248e-13, Final residual = 2.63621e-16, No Iterations 2
DILUPBiCG:  Solving for k, Initial residual = 1.25207e-12, Final residual = 2.3647e-15, No Iterations 2
DICPCG:  Solving for G, Initial residual = 1.52345e-12, Final residual = 8.49367e-14, No Iterations 10
Before T+T solve
BiCG:  Solving for T+T, Initial residual = 1.93377e-13, Final residual = 1.55011e-14, No Iterations 3
Tres = -8.8867e-11
TsRes = -8.13429e-12
ExecutionTime = 2.36 s



Wall heat fluxes [W]
movingWall -0.0465727 -3.2972e-15 0.0465727 5.64361e-13
left 0.768847 0 1.63854 2.40738
right -0.52566 5.7892e-15 -1.88173 -2.40738
bottom -0.196614 0 0.196614 4.66432e-13
frontAndBack 0 0 0 0
sum -8.88684e-11 2.492e-15 8.36553e-13 -8.80294e-11


Wall heat fluxes [W]
topAndBottom 0 0 0 0
left 2.40738 0 0 2.40738
right -2.40738 0 0 -2.40738
frontAndBack 0 0 0 0
sum -8.13438e-12 0 0 -8.13438e-12

Time = 994

DILUPBiCG:  Solving for Ux, Initial residual = 8.5744e-13, Final residual = 7.64149e-15, No Iterations 1
DILUPBiCG:  Solving for Uy, Initial residual = 1.14742e-12, Final residual = 1.48838e-15, No Iterations 2
DICPCG:  Solving for p_rgh, Initial residual = 1.48079e-12, Final residual = 4.1782e-15, No Iterations 11
time step continuity errors : sum local = 1.79522e-14, global = -4.80426e-17, cumulative = -1.08521e-15
DILUPBiCG:  Solving for epsilon, Initial residual = 6.10059e-13, Final residual = 2.56303e-16, No Iterations 2
DILUPBiCG:  Solving for k, Initial residual = 1.22314e-12, Final residual = 2.29724e-15, No Iterations 2
DICPCG:  Solving for G, Initial residual = 1.37747e-12, Final residual = 9.55392e-14, No Iterations 10
Before T+T solve
BiCG:  Solving for T+T, Initial residual = 1.86405e-13, Final residual = 1.66275e-14, No Iterations 3
Tres = -8.66493e-11
TsRes = -7.61705e-12
ExecutionTime = 2.36 s



Wall heat fluxes [W]
movingWall -0.0465727 3.59532e-16 0.0465727 4.79727e-13
left 0.768847 -1.66493e-15 1.63854 2.40738
right -0.52566 8.89948e-16 -1.88173 -2.40738
bottom -0.196614 0 0.196614 3.78336e-13
frontAndBack 0 0 0 0
sum -8.66474e-11 -4.15448e-16 2.27318e-13 -8.64205e-11


Wall heat fluxes [W]
topAndBottom 0 0 0 0
left 2.40738 0 0 2.40738
right -2.40738 0 0 -2.40738
frontAndBack 0 0 0 0
sum -7.61657e-12 0 0 -7.61657e-12

Time = 995

DILUPBiCG:  Solving for Ux, Initial residual = 8.48572e-13, Final residual = 7.42768e-15, No Iterations 1
DILUPBiCG:  Solving for Uy, Initial residual = 1.18631e-12, Final residual = 3.45575e-16, No Iterations 2
DICPCG:  Solving for p_rgh, Initial residual = 1.44428e-12, Final residual = 9.90834e-15, No Iterations 5
time step continuity errors : sum local = 5.85284e-14, global = -2.11229e-16, cumulative = -1.29644e-15
DILUPBiCG:  Solving for epsilon, Initial residual = 5.93264e-13, Final residual = 2.48993e-16, No Iterations 2
DILUPBiCG:  Solving for k, Initial residual = 1.192e-12, Final residual = 2.24582e-15, No Iterations 2
DICPCG:  Solving for G, Initial residual = 1.40016e-12, Final residual = 8.46341e-14, No Iterations 10
Before T+T solve
BiCG:  Solving for T+T, Initial residual = 1.82952e-13, Final residual = 1.55003e-14, No Iterations 3
Tres = -8.45325e-11
TsRes = -7.23414e-12
ExecutionTime = 2.36 s



Wall heat fluxes [W]
movingWall -0.0465727 -3.27827e-15 0.0465727 4.92661e-13
left 0.768847 -6.52097e-15 1.63854 2.40738
right -0.52566 3.5632e-15 -1.88173 -2.40738
bottom -0.196614 0 0.196614 3.99819e-13
frontAndBack 0 0 0 0
sum -8.45245e-11 -6.23605e-15 -8.32667e-14 -8.4614e-11


Wall heat fluxes [W]
topAndBottom 0 0 0 0
left 2.40738 0 0 2.40738
right -2.40738 0 0 -2.40738
frontAndBack 0 0 0 0
sum -7.23466e-12 0 0 -7.23466e-12

Time = 996

DILUPBiCG:  Solving for Ux, Initial residual = 8.26188e-13, Final residual = 7.27125e-15, No Iterations 1
DILUPBiCG:  Solving for Uy, Initial residual = 1.12454e-12, Final residual = 8.24315e-16, No Iterations 2
DICPCG:  Solving for p_rgh, Initial residual = 1.42178e-12, Final residual = 1.18664e-14, No Iterations 5
time step continuity errors : sum local = 7.76719e-14, global = -8.57621e-17, cumulative = -1.3822e-15
DILUPBiCG:  Solving for epsilon, Initial residual = 5.78679e-13, Final residual = 2.43967e-16, No Iterations 2
DILUPBiCG:  Solving for k, Initial residual = 1.1632e-12, Final residual = 2.20182e-15, No Iterations 2
DICPCG:  Solving for G, Initial residual = 1.50671e-12, Final residual = 6.35969e-14, No Iterations 10
Before T+T solve
BiCG:  Solving for T+T, Initial residual = 1.77954e-13, Final residual = 1.69829e-14, No Iterations 2
Tres = -8.26298e-11
TsRes = -8.11777e-12
ExecutionTime = 2.37 s



Wall heat fluxes [W]
movingWall -0.0465727 2.63809e-15 0.0465727 6.33278e-13
left 0.768847 -8.32464e-15 1.63854 2.40738
right -0.52566 4.8987e-15 -1.88173 -2.40738
bottom -0.196614 0 0.196614 5.56055e-13
frontAndBack 0 0 0 0
sum -8.26296e-11 -7.87848e-16 7.36411e-13 -8.1894e-11


Wall heat fluxes [W]
topAndBottom 0 0 0 0
left 2.40738 0 0 2.40738
right -2.40738 0 0 -2.40738
frontAndBack 0 0 0 0
sum -8.11706e-12 0 0 -8.11706e-12

Time = 997

DILUPBiCG:  Solving for Ux, Initial residual = 8.10622e-13, Final residual = 7.21037e-15, No Iterations 1
DILUPBiCG:  Solving for Uy, Initial residual = 9.56064e-13, Final residual = 2.68988e-16, No Iterations 2
DICPCG:  Solving for p_rgh, Initial residual = 1.40349e-12, Final residual = 4.37262e-15, No Iterations 11
time step continuity errors : sum local = 1.90334e-14, global = -2.64168e-16, cumulative = -1.64637e-15
DILUPBiCG:  Solving for epsilon, Initial residual = 5.68909e-13, Final residual = 2.3906e-16, No Iterations 2
DILUPBiCG:  Solving for k, Initial residual = 1.1373e-12, Final residual = 2.13547e-15, No Iterations 2
DICPCG:  Solving for G, Initial residual = 1.67134e-12, Final residual = 5.32647e-14, No Iterations 11
Before T+T solve
BiCG:  Solving for T+T, Initial residual = 1.73722e-13, Final residual = 1.55539e-14, No Iterations 3
Tres = -8.06681e-11
TsRes = -7.81079e-12
ExecutionTime = 2.37 s



Wall heat fluxes [W]
movingWall -0.0465727 -3.23075e-15 0.0465727 4.97449e-13
left 0.768847 -2.35865e-15 1.63854 2.40738
right -0.52566 -5.34369e-15 -1.88173 -2.40738
bottom -0.196614 0 0.196614 4.01595e-13
frontAndBack 0 0 0 0
sum -8.0659e-11 -1.09331e-14 6.21725e-13 -8.00482e-11


Wall heat fluxes [W]
topAndBottom 0 0 0 0
left 2.40738 0 0 2.40738
right -2.40738 0 0 -2.40738
frontAndBack 0 0 0 0
sum -7.81153e-12 0 0 -7.81153e-12

Time = 998

DILUPBiCG:  Solving for Ux, Initial residual = 8.22139e-13, Final residual = 7.01016e-15, No Iterations 1
DILUPBiCG:  Solving for Uy, Initial residual = 1.05445e-12, Final residual = 6.5636e-16, No Iterations 2
DICPCG:  Solving for p_rgh, Initial residual = 1.35508e-12, Final residual = 9.46143e-15, No Iterations 5
time step continuity errors : sum local = 5.4974e-14, global = -1.07467e-16, cumulative = -1.75384e-15
DILUPBiCG:  Solving for epsilon, Initial residual = 5.53169e-13, Final residual = 2.32535e-16, No Iterations 2
DILUPBiCG:  Solving for k, Initial residual = 1.10865e-12, Final residual = 2.08952e-15, No Iterations 2
DICPCG:  Solving for G, Initial residual = 1.32988e-12, Final residual = 7.98458e-14, No Iterations 10
Before T+T solve
BiCG:  Solving for T+T, Initial residual = 1.71316e-13, Final residual = 1.32189e-14, No Iterations 3
Tres = -7.85149e-11
TsRes = -7.27778e-12
ExecutionTime = 2.37 s



Wall heat fluxes [W]
movingWall -0.0465727 -4.39237e-15 0.0465727 3.60302e-13
left 0.768847 1.38744e-16 1.63854 2.40738
right -0.52566 8.90051e-16 -1.88173 -2.40738
bottom -0.196614 0 0.196614 2.68952e-13
frontAndBack 0 0 0 0
sum -7.85101e-11 -3.36357e-15 -6.51146e-14 -7.85786e-11


Wall heat fluxes [W]
topAndBottom 0 0 0 0
left 2.40738 0 0 2.40738
right -2.40738 0 0 -2.40738
frontAndBack 0 0 0 0
sum -7.27773e-12 0 0 -7.27773e-12

Time = 999

DILUPBiCG:  Solving for Ux, Initial residual = 7.59076e-13, Final residual = 6.76086e-15, No Iterations 1
DILUPBiCG:  Solving for Uy, Initial residual = 1.15651e-12, Final residual = 2.34849e-16, No Iterations 2
DICPCG:  Solving for p_rgh, Initial residual = 1.32604e-12, Final residual = 1.08811e-14, No Iterations 5
time step continuity errors : sum local = 7.13683e-14, global = -1.09585e-16, cumulative = -1.86342e-15
DILUPBiCG:  Solving for epsilon, Initial residual = 5.37616e-13, Final residual = 2.2697e-16, No Iterations 2
DILUPBiCG:  Solving for k, Initial residual = 1.08261e-12, Final residual = 2.05352e-15, No Iterations 2
DICPCG:  Solving for G, Initial residual = 1.3454e-12, Final residual = 6.65765e-14, No Iterations 10
Before T+T solve
BiCG:  Solving for T+T, Initial residual = 1.65732e-13, Final residual = 1.40678e-14, No Iterations 3
Tres = -7.69369e-11
TsRes = -6.94877e-12
ExecutionTime = 2.37 s



Wall heat fluxes [W]
movingWall -0.0465727 -2.18691e-16 0.0465727 6.44498e-13
left 0.768847 -3.60734e-15 1.63854 2.40738
right -0.52566 8.89489e-16 -1.88173 -2.40738
bottom -0.196614 0 0.196614 5.77954e-13
frontAndBack 0 0 0 0
sum -7.6933e-11 -2.93655e-15 1.10117e-12 -7.58347e-11


Wall heat fluxes [W]
topAndBottom 0 0 0 0
left 2.40738 0 0 2.40738
right -2.40738 0 0 -2.40738
frontAndBack 0 0 0 0
sum -6.94822e-12 0 0 -6.94822e-12

Time = 1000

DILUPBiCG:  Solving for Ux, Initial residual = 7.47726e-13, Final residual = 6.62553e-15, No Iterations 1
DILUPBiCG:  Solving for Uy, Initial residual = 8.21553e-13, Final residual = 1.88027e-16, No Iterations 2
DICPCG:  Solving for p_rgh, Initial residual = 1.26807e-12, Final residual = 4.11149e-15, No Iterations 11
time step continuity errors : sum local = 1.87421e-14, global = 2.2142e-16, cumulative = -1.642e-15
DILUPBiCG:  Solving for epsilon, Initial residual = 5.28359e-13, Final residual = 2.21466e-16, No Iterations 2
DILUPBiCG:  Solving for k, Initial residual = 1.05738e-12, Final residual = 1.98575e-15, No Iterations 2
DICPCG:  Solving for G, Initial residual = 1.57227e-12, Final residual = 8.91937e-14, No Iterations 10
Before T+T solve
BiCG:  Solving for T+T, Initial residual = 1.62197e-13, Final residual = 1.5719e-14, No Iterations 2
Tres = -7.4772e-11
TsRes = -7.3846e-12
ExecutionTime = 2.38 s



Wall heat fluxes [W]
movingWall -0.0465727 -5.33924e-16 0.0465727 3.32477e-13
left 0.768847 8.1859e-15 1.63854 2.40738
right -0.52566 -4.451e-16 -1.88173 -2.40738
bottom -0.196614 0 0.196614 2.35256e-13
frontAndBack 0 0 0 0
sum -7.47794e-11 7.20687e-15 -4.59355e-14 -7.48182e-11


Wall heat fluxes [W]
topAndBottom 0 0 0 0
left 2.40738 0 0 2.40738
right -2.40738 0 0 -2.40738
frontAndBack 0 0 0 0
sum -7.38476e-12 0 0 -7.38476e-12

End

