/*---------------------------------------------------------------------------*\
| =========                 |                                                 |
| \\      /  F ield         | OpenFOAM Extend Project: Open source CFD        |
|  \\    /   O peration     | Version:  1.6-ext                               |
|   \\  /    A nd           | Web:      www.extend-project.de                 |
|    \\/     M anipulation  |                                                 |
\*---------------------------------------------------------------------------*/
Build  : 1.6-ext-8673d8aecf4d
Exec   : chipAirCoolingSimpleFoam
Date   : Nov 01 2011
Time   : 21:09:42
Host   : diokletian
PID    : 17586
Case   : /home/henrus/projects/ChipAirCooling/run/tutorial1_fineSolid/conjugateContactCavity
nProcs : 1
SigFpe : Enabling floating point exception trapping (FOAM_SIGFPE).

// * * * * * * * * * * * * * * * * * * * * * * * * * * * * * * * * * * * * * //
Create time

Create mesh for time = 0


    From function void polyMesh::initMesh()
    in file meshes/polyMesh/polyMeshInitMesh.C at line 82
    Truncating neighbour list at 180 for backward compatibility

Reading g
Reading transportProperties

Calculating field g.h

Reading field p_rgh

Reading field U

Reading field T

Reading/calculating face flux field phi

Selecting incompressible transport model Newtonian
Selecting RAS turbulence model kEpsilon
kEpsilonCoeffs
{
    Cmu             0.09;
    C1              1.44;
    C2              1.92;
    alphaEps        0.76923;
    sigmaEps        1.3;
}

Reading field kappaEff

Creating radiation model

Selecting radiationModel P1
Selecting absorptionEmissionModel constantAbsorptionEmission
Selecting scatterModel constantScatter
Reading field Tsolid

Reading solid thermal properties
Selecting thermal model multiMaterialZones
Selecting thermal model constant
Selecting thermal model constant
Selecting thermal gap model constant
Reading solid diffusivity k


Starting time loop

--> FOAM Warning : 
    From function dlLibraryTable::open(const dictionary& dict, const word& libsEntry, const TablePtr tablePtr)
    in file lnInclude/dlLibraryTableTemplates.C at line 68
    library "libairbusMaterialModels.so" did not introduce any new entries

Time = 1

DILUPBiCG:  Solving for Ux, Initial residual = 1, Final residual = 9.72759e-05, No Iterations 2
DILUPBiCG:  Solving for Uy, Initial residual = 1, Final residual = 0.000174731, No Iterations 2
DICPCG:  Solving for p_rgh, Initial residual = 1, Final residual = 0.00985949, No Iterations 5
time step continuity errors : sum local = 0.00481111, global = 2.0845e-18, cumulative = 2.0845e-18
DILUPBiCG:  Solving for epsilon, Initial residual = 0.0778063, Final residual = 0.000142604, No Iterations 2
DILUPBiCG:  Solving for k, Initial residual = 1, Final residual = 0.00249972, No Iterations 2
DICPCG:  Solving for G, Initial residual = 1, Final residual = 0.0255384, No Iterations 11
BiCG:  Solving for T+T, Initial residual = 0.394284, Final residual = 0.0302517, No Iterations 3
ExecutionTime = 0.02 s



Wall heat fluxes [W]
movingWall 0.00247496 0 8.04921e-07 0.00247576
left 6.23806e-07 0 -1.20093e-06 -5.77126e-07
right -0.549761 0 8.04921e-07 -0.54976
bottom 0.00519767 0 -1.20093e-06 0.00519647
frontAndBack 0 0 0 0
sum -0.542088 0 -7.92022e-07 -0.542089


Wall heat fluxes [W]
topAndBottom 0 0 0 0
left -3.86533 0 0 -3.86533
right -33.443 0 0 -33.443
frontAndBack 0 0 0 0
sum -37.3083 0 0 -37.3083

Time = 2

DILUPBiCG:  Solving for Ux, Initial residual = 0.88812, Final residual = 9.22581e-05, No Iterations 2
DILUPBiCG:  Solving for Uy, Initial residual = 0.823502, Final residual = 0.00720925, No Iterations 1
DICPCG:  Solving for p_rgh, Initial residual = 0.89088, Final residual = 0.00653464, No Iterations 6
time step continuity errors : sum local = 0.0220322, global = 3.25975e-16, cumulative = 3.2806e-16
DILUPBiCG:  Solving for epsilon, Initial residual = 0.0242198, Final residual = 3.05925e-05, No Iterations 2
DILUPBiCG:  Solving for k, Initial residual = 0.650647, Final residual = 0.00080908, No Iterations 2
DICPCG:  Solving for G, Initial residual = 0.995241, Final residual = 0.0327411, No Iterations 13
BiCG:  Solving for T+T, Initial residual = 0.0315723, Final residual = 0.00263462, No Iterations 5
ExecutionTime = 0.02 s



Wall heat fluxes [W]
movingWall -0.273686 -9.83621e-19 0.38532 0.111635
left 0.0106126 6.61583e-23 0.386564 0.397176
right -0.502676 1.43459e-14 -1.15143 -1.65411
bottom -0.249439 0 0.379551 0.130112
frontAndBack 0 0 0 0
sum -1.01519 1.43449e-14 3.86101e-06 -1.01518


Wall heat fluxes [W]
topAndBottom 0 0 0 0
left 16.6296 0 0 16.6296
right -15.1384 0 0 -15.1384
frontAndBack 0 0 0 0
sum 1.49124 0 0 1.49124

Time = 3

DILUPBiCG:  Solving for Ux, Initial residual = 0.349729, Final residual = 2.4196e-05, No Iterations 2
DILUPBiCG:  Solving for Uy, Initial residual = 0.561188, Final residual = 0.00461496, No Iterations 1
DICPCG:  Solving for p_rgh, Initial residual = 0.471582, Final residual = 0.00240344, No Iterations 6
time step continuity errors : sum local = 0.00799521, global = 6.60421e-17, cumulative = 3.94102e-16
DILUPBiCG:  Solving for epsilon, Initial residual = 0.0757825, Final residual = 4.25657e-05, No Iterations 2
DILUPBiCG:  Solving for k, Initial residual = 0.21787, Final residual = 0.000286288, No Iterations 2
DICPCG:  Solving for G, Initial residual = 0.153509, Final residual = 0.0054498, No Iterations 11
BiCG:  Solving for T+T, Initial residual = 0.0117307, Final residual = 0.000471082, No Iterations 6
ExecutionTime = 0.02 s



Wall heat fluxes [W]
movingWall -0.257524 1.8304e-15 0.265202 0.00767833
left 0.0143901 2.2302e-16 0.520568 0.534959
right -0.493593 -1.54297e-18 -0.997362 -1.49096
bottom -0.209254 0 0.211584 0.00233092
frontAndBack 0 0 0 0
sum -0.94598 2.05187e-15 -6.80842e-06 -0.945987


Wall heat fluxes [W]
topAndBottom 0 0 0 0
left 36.185 0 0 36.185
right -10.2472 0 0 -10.2472
frontAndBack 0 0 0 0
sum 25.9379 0 0 25.9379

Time = 4

DILUPBiCG:  Solving for Ux, Initial residual = 0.175372, Final residual = 0.0016576, No Iterations 1
DILUPBiCG:  Solving for Uy, Initial residual = 0.299036, Final residual = 0.00260106, No Iterations 1
DICPCG:  Solving for p_rgh, Initial residual = 0.170258, Final residual = 0.00145977, No Iterations 6
time step continuity errors : sum local = 0.00515714, global = 3.71239e-17, cumulative = 4.31226e-16
DILUPBiCG:  Solving for epsilon, Initial residual = 0.118708, Final residual = 9.98678e-05, No Iterations 2
DILUPBiCG:  Solving for k, Initial residual = 0.131981, Final residual = 0.000161315, No Iterations 2
DICPCG:  Solving for G, Initial residual = 0.0324803, Final residual = 0.00101836, No Iterations 13
BiCG:  Solving for T+T, Initial residual = 0.00781213, Final residual = 0.000646784, No Iterations 5
ExecutionTime = 0.03 s



Wall heat fluxes [W]
movingWall -0.262854 -1.21355e-15 0.276873 0.0140197
left 0.0182743 -1.13136e-16 0.547462 0.565736
right -0.518545 3.12289e-15 -1.0584 -1.57694
bottom -0.220577 0 0.23406 0.0134831
frontAndBack 0 0 0 0
sum -0.983702 1.79621e-15 -2.83167e-07 -0.983702


Wall heat fluxes [W]
topAndBottom 0 0 0 0
left 34.8415 0 0 34.8415
right -7.97575 0 0 -7.97575
frontAndBack 0 0 0 0
sum 26.8657 0 0 26.8657

Time = 5

DILUPBiCG:  Solving for Ux, Initial residual = 0.122028, Final residual = 0.00101983, No Iterations 1
DILUPBiCG:  Solving for Uy, Initial residual = 0.173338, Final residual = 0.00140808, No Iterations 1
DICPCG:  Solving for p_rgh, Initial residual = 0.108743, Final residual = 0.000985979, No Iterations 11
time step continuity errors : sum local = 0.00265944, global = 2.04876e-16, cumulative = 6.36102e-16
DILUPBiCG:  Solving for epsilon, Initial residual = 0.139095, Final residual = 0.000131019, No Iterations 2
DILUPBiCG:  Solving for k, Initial residual = 0.0990052, Final residual = 0.000131418, No Iterations 2
DICPCG:  Solving for G, Initial residual = 0.0632118, Final residual = 0.00197011, No Iterations 13
BiCG:  Solving for T+T, Initial residual = 0.00599758, Final residual = 0.000404061, No Iterations 5
ExecutionTime = 0.03 s



Wall heat fluxes [W]
movingWall -0.291428 -1.83856e-15 0.315575 0.0241463
left 0.0224938 -2.61229e-16 0.613965 0.636459
right -0.545496 1.27524e-14 -1.20339 -1.74889
bottom -0.252062 0 0.273855 0.0217929
frontAndBack 0 0 0 0
sum -1.06649 1.06526e-14 7.56217e-08 -1.06649


Wall heat fluxes [W]
topAndBottom 0 0 0 0
left 30.9236 0 0 30.9236
right -6.62949 0 0 -6.62949
frontAndBack 0 0 0 0
sum 24.2941 0 0 24.2941

Time = 6

DILUPBiCG:  Solving for Ux, Initial residual = 0.10932, Final residual = 0.000874186, No Iterations 1
DILUPBiCG:  Solving for Uy, Initial residual = 0.110352, Final residual = 0.000864445, No Iterations 1
DICPCG:  Solving for p_rgh, Initial residual = 0.0884311, Final residual = 0.000715855, No Iterations 11
time step continuity errors : sum local = 0.00190905, global = 6.80406e-16, cumulative = 1.31651e-15
DILUPBiCG:  Solving for epsilon, Initial residual = 0.133341, Final residual = 0.000135539, No Iterations 2
DILUPBiCG:  Solving for k, Initial residual = 0.0820991, Final residual = 9.54965e-06, No Iterations 3
DICPCG:  Solving for G, Initial residual = 0.0655134, Final residual = 0.00194138, No Iterations 13
BiCG:  Solving for T+T, Initial residual = 0.0048966, Final residual = 0.00035487, No Iterations 4
ExecutionTime = 0.03 s



Wall heat fluxes [W]
movingWall -0.320571 3.73115e-15 0.344015 0.0234443
left 0.0274096 1.86437e-16 0.690991 0.718401
right -0.569679 2.75952e-14 -1.3422 -1.91188
bottom -0.283792 0 0.307197 0.0234047
frontAndBack 0 0 0 0
sum -1.14663 3.15127e-14 -3.13395e-07 -1.14663


Wall heat fluxes [W]
topAndBottom 0 0 0 0
left 26.434 0 0 26.434
right -5.76945 0 0 -5.76945
frontAndBack 0 0 0 0
sum 20.6645 0 0 20.6645

Time = 7

DILUPBiCG:  Solving for Ux, Initial residual = 0.0861333, Final residual = 0.000713384, No Iterations 1
DILUPBiCG:  Solving for Uy, Initial residual = 0.0942375, Final residual = 0.00074941, No Iterations 1
DICPCG:  Solving for p_rgh, Initial residual = 0.0702373, Final residual = 0.000691545, No Iterations 10
time step continuity errors : sum local = 0.0016465, global = -6.23363e-17, cumulative = 1.25417e-15
DILUPBiCG:  Solving for epsilon, Initial residual = 0.110904, Final residual = 0.000119803, No Iterations 2
DILUPBiCG:  Solving for k, Initial residual = 0.0718995, Final residual = 9.60086e-05, No Iterations 2
DICPCG:  Solving for G, Initial residual = 0.0566725, Final residual = 0.00165502, No Iterations 13
BiCG:  Solving for T+T, Initial residual = 0.00418481, Final residual = 0.000240729, No Iterations 4
ExecutionTime = 0.03 s



Wall heat fluxes [W]
movingWall -0.348788 5.05697e-15 0.370581 0.0217933
left 0.0324157 1.69094e-16 0.764675 0.797091
right -0.58937 -9.8875e-15 -1.46914 -2.05851
bottom -0.31023 0 0.333887 0.0236562
frontAndBack 0 0 0 0
sum -1.21597 -4.66144e-15 -3.70881e-07 -1.21597


Wall heat fluxes [W]
topAndBottom 0 0 0 0
left 22.7013 0 0 22.7013
right -5.17686 0 0 -5.17686
frontAndBack 0 0 0 0
sum 17.5245 0 0 17.5245

Time = 8

DILUPBiCG:  Solving for Ux, Initial residual = 0.0662315, Final residual = 0.000581807, No Iterations 1
DILUPBiCG:  Solving for Uy, Initial residual = 0.0832004, Final residual = 0.000659731, No Iterations 1
DICPCG:  Solving for p_rgh, Initial residual = 0.0540462, Final residual = 0.000484335, No Iterations 10
time step continuity errors : sum local = 0.00112143, global = -2.44184e-16, cumulative = 1.00999e-15
DILUPBiCG:  Solving for epsilon, Initial residual = 0.0870027, Final residual = 0.000303203, No Iterations 2
DILUPBiCG:  Solving for k, Initial residual = 0.0664847, Final residual = 0.000111911, No Iterations 2
DICPCG:  Solving for G, Initial residual = 0.0474226, Final residual = 0.00137537, No Iterations 13
BiCG:  Solving for T+T, Initial residual = 0.00368814, Final residual = 0.000337196, No Iterations 3
ExecutionTime = 0.03 s



Wall heat fluxes [W]
movingWall -0.373448 -3.84055e-15 0.39393 0.0204813
left 0.0365585 -9.97222e-17 0.831764 0.868322
right -0.605374 -7.09578e-15 -1.57914 -2.18452
bottom -0.330536 0 0.353449 0.0229135
frontAndBack 0 0 0 0
sum -1.2728 -1.1036e-14 -4.11556e-07 -1.2728


Wall heat fluxes [W]
topAndBottom 0 0 0 0
left 19.1837 0 0 19.1837
right -4.71889 0 0 -4.71889
frontAndBack 0 0 0 0
sum 14.4648 0 0 14.4648

Time = 9

DILUPBiCG:  Solving for Ux, Initial residual = 0.054596, Final residual = 0.00048335, No Iterations 1
DILUPBiCG:  Solving for Uy, Initial residual = 0.0727541, Final residual = 0.000600902, No Iterations 1
DICPCG:  Solving for p_rgh, Initial residual = 0.0554328, Final residual = 0.000426694, No Iterations 11
time step continuity errors : sum local = 0.00095973, global = -1.84891e-16, cumulative = 8.25096e-16
DILUPBiCG:  Solving for epsilon, Initial residual = 0.069371, Final residual = 9.96754e-05, No Iterations 2
DILUPBiCG:  Solving for k, Initial residual = 0.0624392, Final residual = 0.000110894, No Iterations 2
DICPCG:  Solving for G, Initial residual = 0.0399884, Final residual = 0.0011367, No Iterations 13
BiCG:  Solving for T+T, Initial residual = 0.00330165, Final residual = 0.000142868, No Iterations 3
ExecutionTime = 0.04 s



Wall heat fluxes [W]
movingWall -0.393984 -3.07932e-17 0.413451 0.0194671
left 0.0397682 7.19734e-16 0.892354 0.932122
right -0.617361 -1.01142e-14 -1.67383 -2.29119
bottom -0.346254 0 0.368025 0.0217715
frontAndBack 0 0 0 0
sum -1.31783 -9.42522e-15 -3.79805e-07 -1.31783


Wall heat fluxes [W]
topAndBottom 0 0 0 0
left 16.0954 0 0 16.0954
right -4.3634 0 0 -4.3634
frontAndBack 0 0 0 0
sum 11.732 0 0 11.732

Time = 10

DILUPBiCG:  Solving for Ux, Initial residual = 0.0462793, Final residual = 0.000392828, No Iterations 1
DILUPBiCG:  Solving for Uy, Initial residual = 0.064381, Final residual = 0.000538433, No Iterations 1
DICPCG:  Solving for p_rgh, Initial residual = 0.0617915, Final residual = 0.00047088, No Iterations 11
time step continuity errors : sum local = 0.00104002, global = 5.0822e-17, cumulative = 8.75918e-16
DILUPBiCG:  Solving for epsilon, Initial residual = 0.0561392, Final residual = 5.60366e-05, No Iterations 2
DILUPBiCG:  Solving for k, Initial residual = 0.0590712, Final residual = 9.55935e-05, No Iterations 2
DICPCG:  Solving for G, Initial residual = 0.0335568, Final residual = 0.000943936, No Iterations 13
BiCG:  Solving for T+T, Initial residual = 0.0030004, Final residual = 0.000228394, No Iterations 3
ExecutionTime = 0.04 s



Wall heat fluxes [W]
movingWall -0.410335 1.33173e-15 0.428162 0.0178269
left 0.0424573 -2.29795e-16 0.946089 0.988546
right -0.626166 1.27211e-15 -1.75231 -2.37848
bottom -0.358423 0 0.378059 0.0196353
frontAndBack 0 0 0 0
sum -1.35247 2.37405e-15 -3.99209e-07 -1.35247


Wall heat fluxes [W]
topAndBottom 0 0 0 0
left 13.6024 0 0 13.6024
right -4.06456 0 0 -4.06456
frontAndBack 0 0 0 0
sum 9.5378 0 0 9.5378

Time = 11

DILUPBiCG:  Solving for Ux, Initial residual = 0.0416106, Final residual = 0.000336548, No Iterations 1
DILUPBiCG:  Solving for Uy, Initial residual = 0.0575641, Final residual = 0.000486572, No Iterations 1
DICPCG:  Solving for p_rgh, Initial residual = 0.0665631, Final residual = 0.000469278, No Iterations 11
time step continuity errors : sum local = 0.00103998, global = 3.3749e-17, cumulative = 9.09667e-16
DILUPBiCG:  Solving for epsilon, Initial residual = 0.046012, Final residual = 6.16772e-05, No Iterations 2
DILUPBiCG:  Solving for k, Initial residual = 0.0561241, Final residual = 8.12534e-05, No Iterations 2
DICPCG:  Solving for G, Initial residual = 0.0277116, Final residual = 0.000754857, No Iterations 13
BiCG:  Solving for T+T, Initial residual = 0.0027439, Final residual = 0.000144729, No Iterations 3
ExecutionTime = 0.04 s



Wall heat fluxes [W]
movingWall -0.422369 -2.62312e-15 0.438799 0.0164299
left 0.044865 2.60145e-17 0.992434 1.0373
right -0.632336 3.84607e-15 -1.81628 -2.44861
bottom -0.367763 0 0.385042 0.0172798
frontAndBack 0 0 0 0
sum -1.3776 1.24896e-15 -3.28258e-07 -1.3776


Wall heat fluxes [W]
topAndBottom 0 0 0 0
left 11.624 0 0 11.624
right -3.82832 0 0 -3.82832
frontAndBack 0 0 0 0
sum 7.79566 0 0 7.79566

Time = 12

DILUPBiCG:  Solving for Ux, Initial residual = 0.0388192, Final residual = 0.000318754, No Iterations 1
DILUPBiCG:  Solving for Uy, Initial residual = 0.0534117, Final residual = 0.000443113, No Iterations 1
DICPCG:  Solving for p_rgh, Initial residual = 0.0677339, Final residual = 0.000525958, No Iterations 11
time step continuity errors : sum local = 0.00115924, global = -7.30566e-17, cumulative = 8.3661e-16
DILUPBiCG:  Solving for epsilon, Initial residual = 0.0382649, Final residual = 5.38908e-05, No Iterations 2
DILUPBiCG:  Solving for k, Initial residual = 0.0535164, Final residual = 6.80056e-05, No Iterations 2
DICPCG:  Solving for G, Initial residual = 0.0229661, Final residual = 0.000626443, No Iterations 13
BiCG:  Solving for T+T, Initial residual = 0.00253562, Final residual = 0.000192603, No Iterations 3
ExecutionTime = 0.04 s



Wall heat fluxes [W]
movingWall -0.430679 -1.29889e-15 0.445702 0.0150233
left 0.0470242 1.38744e-16 1.03222 1.07925
right -0.636767 -3.00836e-15 -1.86816 -2.50493
bottom -0.374886 0 0.390239 0.0153528
frontAndBack 0 0 0 0
sum -1.39531 -4.16851e-15 -3.3375e-07 -1.39531


Wall heat fluxes [W]
topAndBottom 0 0 0 0
left 9.99999 0 0 9.99999
right -3.63087 0 0 -3.63087
frontAndBack 0 0 0 0
sum 6.36912 0 0 6.36912

Time = 13

DILUPBiCG:  Solving for Ux, Initial residual = 0.0368317, Final residual = 0.000312747, No Iterations 1
DILUPBiCG:  Solving for Uy, Initial residual = 0.0508639, Final residual = 0.000403987, No Iterations 1
DICPCG:  Solving for p_rgh, Initial residual = 0.0659834, Final residual = 0.000581349, No Iterations 11
time step continuity errors : sum local = 0.00122759, global = -5.86967e-17, cumulative = 7.77914e-16
DILUPBiCG:  Solving for epsilon, Initial residual = 0.032485, Final residual = 3.99386e-05, No Iterations 2
DILUPBiCG:  Solving for k, Initial residual = 0.0515251, Final residual = 6.29775e-05, No Iterations 2
DICPCG:  Solving for G, Initial residual = 0.0192391, Final residual = 0.000512471, No Iterations 13
BiCG:  Solving for T+T, Initial residual = 0.00236765, Final residual = 0.000146224, No Iterations 3
ExecutionTime = 0.04 s



Wall heat fluxes [W]
movingWall -0.436019 -6.50034e-15 0.449912 0.0138932
left 0.0489542 -2.42802e-16 1.06648 1.11544
right -0.639677 4.75057e-15 -1.91019 -2.54987
bottom -0.380162 0 0.393795 0.0136324
frontAndBack 0 0 0 0
sum -1.4069 -1.99258e-15 -2.83267e-07 -1.4069


Wall heat fluxes [W]
topAndBottom 0 0 0 0
left 8.68046 0 0 8.68046
right -3.47283 0 0 -3.47283
frontAndBack 0 0 0 0
sum 5.20762 0 0 5.20762

Time = 14

DILUPBiCG:  Solving for Ux, Initial residual = 0.035438, Final residual = 0.000343856, No Iterations 1
DILUPBiCG:  Solving for Uy, Initial residual = 0.0486151, Final residual = 0.000370536, No Iterations 1
DICPCG:  Solving for p_rgh, Initial residual = 0.0632591, Final residual = 0.000536977, No Iterations 11
time step continuity errors : sum local = 0.00112948, global = 2.52786e-16, cumulative = 1.0307e-15
DILUPBiCG:  Solving for epsilon, Initial residual = 0.0282587, Final residual = 3.03685e-05, No Iterations 2
DILUPBiCG:  Solving for k, Initial residual = 0.0503075, Final residual = 6.03239e-05, No Iterations 2
DICPCG:  Solving for G, Initial residual = 0.0162308, Final residual = 0.000432631, No Iterations 13
BiCG:  Solving for T+T, Initial residual = 0.00222538, Final residual = 0.000175555, No Iterations 3
ExecutionTime = 0.05 s



Wall heat fluxes [W]
movingWall -0.43884 1.35315e-15 0.451696 0.0128557
left 0.0508995 -1.56087e-16 1.09604 1.14694
right -0.641587 1.21368e-14 -1.94385 -2.58544
bottom -0.384143 0 0.396112 0.0119685
frontAndBack 0 0 0 0
sum -1.41367 1.33338e-14 -2.7049e-07 -1.41367


Wall heat fluxes [W]
topAndBottom 0 0 0 0
left 7.62704 0 0 7.62704
right -3.34144 0 0 -3.34144
frontAndBack 0 0 0 0
sum 4.2856 0 0 4.2856

Time = 15

DILUPBiCG:  Solving for Ux, Initial residual = 0.0342251, Final residual = 6.77935e-06, No Iterations 2
DILUPBiCG:  Solving for Uy, Initial residual = 0.0479146, Final residual = 0.000344892, No Iterations 1
DICPCG:  Solving for p_rgh, Initial residual = 0.0622776, Final residual = 0.000490899, No Iterations 11
time step continuity errors : sum local = 0.00103511, global = -9.02578e-17, cumulative = 9.40442e-16
DILUPBiCG:  Solving for epsilon, Initial residual = 0.0259669, Final residual = 2.49709e-05, No Iterations 2
DILUPBiCG:  Solving for k, Initial residual = 0.0496149, Final residual = 6.17625e-05, No Iterations 2
DICPCG:  Solving for G, Initial residual = 0.0137502, Final residual = 0.000357478, No Iterations 13
BiCG:  Solving for T+T, Initial residual = 0.00212111, Final residual = 0.000150104, No Iterations 3
ExecutionTime = 0.05 s



Wall heat fluxes [W]
movingWall -0.439551 -6.67737e-15 0.451482 0.0119308
left 0.0529193 6.59034e-16 1.12152 1.17444
right -0.642621 2.60666e-15 -1.9707 -2.61332
bottom -0.387276 0 0.397689 0.0104135
frontAndBack 0 0 0 0
sum -1.41653 -3.41168e-15 -2.16559e-07 -1.41653


Wall heat fluxes [W]
topAndBottom 0 0 0 0
left 6.74935 0 0 6.74935
right -3.23528 0 0 -3.23528
frontAndBack 0 0 0 0
sum 3.51407 0 0 3.51407

Time = 16

DILUPBiCG:  Solving for Ux, Initial residual = 0.0333835, Final residual = 6.4075e-06, No Iterations 2
DILUPBiCG:  Solving for Uy, Initial residual = 0.0470778, Final residual = 0.000335688, No Iterations 1
DICPCG:  Solving for p_rgh, Initial residual = 0.0640353, Final residual = 0.000444888, No Iterations 11
time step continuity errors : sum local = 0.000938972, global = -2.17051e-17, cumulative = 9.18737e-16
DILUPBiCG:  Solving for epsilon, Initial residual = 0.0245492, Final residual = 2.13752e-05, No Iterations 2
DILUPBiCG:  Solving for k, Initial residual = 0.0495339, Final residual = 6.4792e-05, No Iterations 2
DICPCG:  Solving for G, Initial residual = 0.0117102, Final residual = 0.000303795, No Iterations 13
BiCG:  Solving for T+T, Initial residual = 0.00202615, Final residual = 0.000169156, No Iterations 3
ExecutionTime = 0.05 s



Wall heat fluxes [W]
movingWall -0.438562 -1.37036e-15 0.449664 0.0111016
left 0.0553067 3.4686e-17 1.14354 1.19885
right -0.643066 1.74518e-15 -1.99212 -2.63519
bottom -0.389594 0 0.398921 0.00932689
frontAndBack 0 0 0 0
sum -1.41591 4.09512e-16 -1.87235e-07 -1.41592


Wall heat fluxes [W]
topAndBottom 0 0 0 0
left 6.05242 0 0 6.05242
right -3.14722 0 0 -3.14722
frontAndBack 0 0 0 0
sum 2.9052 0 0 2.9052

Time = 17

DILUPBiCG:  Solving for Ux, Initial residual = 0.0325377, Final residual = 5.73352e-06, No Iterations 2
DILUPBiCG:  Solving for Uy, Initial residual = 0.0463785, Final residual = 0.000339335, No Iterations 1
DICPCG:  Solving for p_rgh, Initial residual = 0.0668906, Final residual = 0.000551047, No Iterations 10
time step continuity errors : sum local = 0.00116714, global = 1.39231e-16, cumulative = 1.05797e-15
DILUPBiCG:  Solving for epsilon, Initial residual = 0.0236554, Final residual = 2.01713e-05, No Iterations 2
DILUPBiCG:  Solving for k, Initial residual = 0.0497564, Final residual = 6.98437e-05, No Iterations 2
DICPCG:  Solving for G, Initial residual = 0.0100857, Final residual = 0.000255583, No Iterations 13
BiCG:  Solving for T+T, Initial residual = 0.00196263, Final residual = 0.000156498, No Iterations 3
ExecutionTime = 0.05 s



Wall heat fluxes [W]
movingWall -0.436099 -4.05015e-15 0.446667 0.0105686
left 0.0581053 -7.97778e-16 1.16272 1.22082
right -0.642976 1.30994e-14 -2.00887 -2.65185
bottom -0.391224 0 0.399487 0.00826248
frontAndBack 0 0 0 0
sum -1.41219 8.25149e-15 -1.36999e-07 -1.41219


Wall heat fluxes [W]
topAndBottom 0 0 0 0
left 5.47321 0 0 5.47321
right -3.07555 0 0 -3.07555
frontAndBack 0 0 0 0
sum 2.39766 0 0 2.39766

Time = 18

DILUPBiCG:  Solving for Ux, Initial residual = 0.0317395, Final residual = 4.68078e-06, No Iterations 2
DILUPBiCG:  Solving for Uy, Initial residual = 0.0455143, Final residual = 0.000356093, No Iterations 1
DICPCG:  Solving for p_rgh, Initial residual = 0.0675157, Final residual = 0.000581993, No Iterations 9
time step continuity errors : sum local = 0.00131561, global = -2.24993e-16, cumulative = 8.32975e-16
DILUPBiCG:  Solving for epsilon, Initial residual = 0.0235548, Final residual = 2.00931e-05, No Iterations 2
DILUPBiCG:  Solving for k, Initial residual = 0.0501736, Final residual = 7.48025e-05, No Iterations 2
DICPCG:  Solving for G, Initial residual = 0.00878639, Final residual = 0.000221672, No Iterations 13
BiCG:  Solving for T+T, Initial residual = 0.00190291, Final residual = 0.000168816, No Iterations 3
ExecutionTime = 0.06 s



Wall heat fluxes [W]
movingWall -0.432233 3.98782e-15 0.442428 0.0101942
left 0.0616447 2.42802e-16 1.17958 1.24123
right -0.642525 -1.74931e-14 -2.02188 -2.6644
bottom -0.392332 0 0.399869 0.00753667
frontAndBack 0 0 0 0
sum -1.40545 -1.32625e-14 -1.01817e-07 -1.40545


Wall heat fluxes [W]
topAndBottom 0 0 0 0
left 5.00382 0 0 5.00382
right -3.01615 0 0 -3.01615
frontAndBack 0 0 0 0
sum 1.98767 0 0 1.98767

Time = 19

DILUPBiCG:  Solving for Ux, Initial residual = 0.0307154, Final residual = 3.94325e-06, No Iterations 2
DILUPBiCG:  Solving for Uy, Initial residual = 0.0447116, Final residual = 0.000373347, No Iterations 1
DICPCG:  Solving for p_rgh, Initial residual = 0.0664734, Final residual = 0.000377451, No Iterations 9
time step continuity errors : sum local = 0.000826517, global = -3.01226e-16, cumulative = 5.31749e-16
DILUPBiCG:  Solving for epsilon, Initial residual = 0.0236682, Final residual = 2.15594e-05, No Iterations 2
DILUPBiCG:  Solving for k, Initial residual = 0.0508293, Final residual = 8.12303e-05, No Iterations 2
DICPCG:  Solving for G, Initial residual = 0.00778331, Final residual = 0.000190342, No Iterations 13
BiCG:  Solving for T+T, Initial residual = 0.00186046, Final residual = 0.0001632, No Iterations 3
ExecutionTime = 0.06 s



Wall heat fluxes [W]
movingWall -0.42721 1.43705e-15 0.437117 0.00990695
left 0.0661132 -3.4686e-17 1.19463 1.26075
right -0.641712 -1.79511e-14 -2.03163 -2.67334
bottom -0.392981 0 0.399881 0.00689935
frontAndBack 0 0 0 0
sum -1.39579 -1.65488e-14 -5.18018e-08 -1.39579


Wall heat fluxes [W]
topAndBottom 0 0 0 0
left 4.62663 0 0 4.62663
right -2.9675 0 0 -2.9675
frontAndBack 0 0 0 0
sum 1.65913 0 0 1.65913

Time = 20

DILUPBiCG:  Solving for Ux, Initial residual = 0.0294663, Final residual = 3.10474e-06, No Iterations 2
DILUPBiCG:  Solving for Uy, Initial residual = 0.044455, Final residual = 0.000382938, No Iterations 1
DICPCG:  Solving for p_rgh, Initial residual = 0.0667711, Final residual = 0.000480085, No Iterations 10
time step continuity errors : sum local = 0.00108536, global = -6.37922e-17, cumulative = 4.67957e-16
DILUPBiCG:  Solving for epsilon, Initial residual = 0.0243784, Final residual = 2.365e-05, No Iterations 2
DILUPBiCG:  Solving for k, Initial residual = 0.0514637, Final residual = 8.86145e-05, No Iterations 2
DICPCG:  Solving for G, Initial residual = 0.00696592, Final residual = 0.000169051, No Iterations 13
BiCG:  Solving for T+T, Initial residual = 0.0018397, Final residual = 0.000170633, No Iterations 3
ExecutionTime = 0.06 s



Wall heat fluxes [W]
movingWall -0.42109 6.81315e-15 0.430883 0.00979373
left 0.0718323 -2.42802e-16 1.20819 1.28002
right -0.640642 -1.22781e-14 -2.03874 -2.67938
bottom -0.393414 0 0.399666 0.00625184
frontAndBack 0 0 0 0
sum -1.38331 -5.70775e-15 -2.18314e-08 -1.38331


Wall heat fluxes [W]
topAndBottom 0 0 0 0
left 4.30698 0 0 4.30698
right -2.92715 0 0 -2.92715
frontAndBack 0 0 0 0
sum 1.37983 0 0 1.37983

Time = 21

DILUPBiCG:  Solving for Ux, Initial residual = 0.0278733, Final residual = 2.55987e-06, No Iterations 2
DILUPBiCG:  Solving for Uy, Initial residual = 0.0436141, Final residual = 0.000396341, No Iterations 1
DICPCG:  Solving for p_rgh, Initial residual = 0.0665499, Final residual = 0.000345697, No Iterations 11
time step continuity errors : sum local = 0.000779811, global = -4.68515e-17, cumulative = 4.21105e-16
DILUPBiCG:  Solving for epsilon, Initial residual = 0.0249212, Final residual = 2.55317e-05, No Iterations 2
DILUPBiCG:  Solving for k, Initial residual = 0.0524191, Final residual = 9.5214e-05, No Iterations 2
DICPCG:  Solving for G, Initial residual = 0.00631472, Final residual = 0.000627149, No Iterations 12
BiCG:  Solving for T+T, Initial residual = 0.00180268, Final residual = 0.000165742, No Iterations 3
ExecutionTime = 0.06 s



Wall heat fluxes [W]
movingWall -0.413981 1.33289e-15 0.42366 0.00967907
left 0.0788686 4.50918e-16 1.22053 1.2994
right -0.639296 -3.06932e-15 -2.04372 -2.68301
bottom -0.393683 0 0.399526 0.0058434
frontAndBack 0 0 0 0
sum -1.36809 -1.28551e-15 -1.09272e-07 -1.36809


Wall heat fluxes [W]
topAndBottom 0 0 0 0
left 4.06523 0 0 4.06523
right -2.89377 0 0 -2.89377
frontAndBack 0 0 0 0
sum 1.17146 0 0 1.17146

Time = 22

DILUPBiCG:  Solving for Ux, Initial residual = 0.0262897, Final residual = 2.11774e-06, No Iterations 2
DILUPBiCG:  Solving for Uy, Initial residual = 0.0427046, Final residual = 0.000399722, No Iterations 1
DICPCG:  Solving for p_rgh, Initial residual = 0.0651411, Final residual = 0.000389438, No Iterations 11
time step continuity errors : sum local = 0.000907671, global = 2.84285e-16, cumulative = 7.05391e-16
DILUPBiCG:  Solving for epsilon, Initial residual = 0.0250801, Final residual = 2.71845e-05, No Iterations 2
DILUPBiCG:  Solving for k, Initial residual = 0.053311, Final residual = 0.000101021, No Iterations 2
DICPCG:  Solving for G, Initial residual = 0.00611562, Final residual = 0.000458109, No Iterations 12
BiCG:  Solving for T+T, Initial residual = 0.00179049, Final residual = 0.000167653, No Iterations 3
ExecutionTime = 0.06 s



Wall heat fluxes [W]
movingWall -0.406041 5.65871e-17 0.415693 0.00965232
left 0.0874615 -6.9372e-17 1.2319 1.31936
right -0.637753 1.36114e-14 -2.04683 -2.68458
bottom -0.393957 0 0.39923 0.00527348
frontAndBack 0 0 0 0
sum -1.35029 1.35987e-14 2.31674e-07 -1.35029


Wall heat fluxes [W]
topAndBottom 0 0 0 0
left 3.8492 0 0 3.8492
right -2.86583 0 0 -2.86583
frontAndBack 0 0 0 0
sum 0.983363 0 0 0.983363

Time = 23

DILUPBiCG:  Solving for Ux, Initial residual = 0.0245268, Final residual = 1.83132e-06, No Iterations 2
DILUPBiCG:  Solving for Uy, Initial residual = 0.0419776, Final residual = 0.0004045, No Iterations 1
DICPCG:  Solving for p_rgh, Initial residual = 0.0620489, Final residual = 0.000583433, No Iterations 10
time step continuity errors : sum local = 0.00143452, global = -3.01755e-16, cumulative = 4.03635e-16
DILUPBiCG:  Solving for epsilon, Initial residual = 0.0248706, Final residual = 2.90999e-05, No Iterations 2
DILUPBiCG:  Solving for k, Initial residual = 0.05398, Final residual = 0.000105854, No Iterations 2
DICPCG:  Solving for G, Initial residual = 0.00556755, Final residual = 0.000463627, No Iterations 11
BiCG:  Solving for T+T, Initial residual = 0.001756, Final residual = 0.000162236, No Iterations 3
ExecutionTime = 0.07 s



Wall heat fluxes [W]
movingWall -0.397277 3.97526e-15 0.406946 0.00966898
left 0.0976631 1.38744e-16 1.24245 1.34011
right -0.635974 -2.10957e-14 -2.04863 -2.6846
bottom -0.394202 0 0.399236 0.0050342
frontAndBack 0 0 0 0
sum -1.32979 -1.69817e-14 -1.14985e-07 -1.32979


Wall heat fluxes [W]
topAndBottom 0 0 0 0
left 3.70126 0 0 3.70126
right -2.84231 0 0 -2.84231
frontAndBack 0 0 0 0
sum 0.858955 0 0 0.858955

Time = 24

DILUPBiCG:  Solving for Ux, Initial residual = 0.0227336, Final residual = 1.62181e-06, No Iterations 2
DILUPBiCG:  Solving for Uy, Initial residual = 0.0405296, Final residual = 0.000395259, No Iterations 1
DICPCG:  Solving for p_rgh, Initial residual = 0.0585557, Final residual = 0.000491882, No Iterations 10
time step continuity errors : sum local = 0.0012364, global = 2.47228e-16, cumulative = 6.50864e-16
DILUPBiCG:  Solving for epsilon, Initial residual = 0.0243223, Final residual = 3.06909e-05, No Iterations 2
DILUPBiCG:  Solving for k, Initial residual = 0.0542967, Final residual = 0.000109388, No Iterations 2
DICPCG:  Solving for G, Initial residual = 0.00532209, Final residual = 0.000422789, No Iterations 11
BiCG:  Solving for T+T, Initial residual = 0.00173964, Final residual = 0.000159918, No Iterations 3
ExecutionTime = 0.07 s



Wall heat fluxes [W]
movingWall -0.387826 5.62561e-17 0.397572 0.00974618
left 0.109599 2.42802e-16 1.2524 1.362
right -0.634061 1.31891e-14 -2.0491 -2.68316
bottom -0.394302 0 0.399129 0.00482659
frontAndBack 0 0 0 0
sum -1.30659 1.34881e-14 -8.04359e-07 -1.30659


Wall heat fluxes [W]
topAndBottom 0 0 0 0
left 3.55709 0 0 3.55709
right -2.82219 0 0 -2.82219
frontAndBack 0 0 0 0
sum 0.734903 0 0 0.734903

Time = 25

DILUPBiCG:  Solving for Ux, Initial residual = 0.0209609, Final residual = 1.5576e-06, No Iterations 2
DILUPBiCG:  Solving for Uy, Initial residual = 0.0384308, Final residual = 1.24507e-05, No Iterations 2
DICPCG:  Solving for p_rgh, Initial residual = 0.0546845, Final residual = 0.000415185, No Iterations 10
time step continuity errors : sum local = 0.00103277, global = -2.6258e-16, cumulative = 3.88283e-16
DILUPBiCG:  Solving for epsilon, Initial residual = 0.0235481, Final residual = 3.17785e-05, No Iterations 2
DILUPBiCG:  Solving for k, Initial residual = 0.0541382, Final residual = 0.000112958, No Iterations 2
DICPCG:  Solving for G, Initial residual = 0.00508966, Final residual = 0.000283051, No Iterations 11
BiCG:  Solving for T+T, Initial residual = 0.00170123, Final residual = 0.000159659, No Iterations 2
ExecutionTime = 0.07 s



Wall heat fluxes [W]
movingWall -0.377766 -1.42861e-15 0.387654 0.00988828
left 0.12335 5.2029e-16 1.26197 1.38532
right -0.632016 -1.05604e-14 -2.04867 -2.68068
bottom -0.394367 0 0.399045 0.00467729
frontAndBack 0 0 0 0
sum -1.2808 -1.14688e-14 -1.21878e-07 -1.2808


Wall heat fluxes [W]
topAndBottom 0 0 0 0
left 2.93923 0 0 2.93923
right -2.81656 0 0 -2.81656
frontAndBack 0 0 0 0
sum 0.122674 0 0 0.122674

Time = 26

DILUPBiCG:  Solving for Ux, Initial residual = 0.0193258, Final residual = 1.60228e-06, No Iterations 2
DILUPBiCG:  Solving for Uy, Initial residual = 0.0365495, Final residual = 1.39013e-05, No Iterations 2
DICPCG:  Solving for p_rgh, Initial residual = 0.052568, Final residual = 0.000412532, No Iterations 10
time step continuity errors : sum local = 0.00108717, global = -1.24408e-16, cumulative = 2.63875e-16
DILUPBiCG:  Solving for epsilon, Initial residual = 0.0222504, Final residual = 3.15757e-05, No Iterations 2
DILUPBiCG:  Solving for k, Initial residual = 0.053578, Final residual = 0.000115675, No Iterations 2
DICPCG:  Solving for G, Initial residual = 0.0048217, Final residual = 0.000166052, No Iterations 11
BiCG:  Solving for T+T, Initial residual = 0.00164498, Final residual = 0.000162186, No Iterations 2
ExecutionTime = 0.07 s



Wall heat fluxes [W]
movingWall -0.367335 -2.69972e-15 0.37713 0.0097947
left 0.138689 6.9372e-17 1.27122 1.40991
right -0.629085 4.40722e-16 -2.04729 -2.67637
bottom -0.394336 0 0.398939 0.00460307
frontAndBack 0 0 0 0
sum -1.25207 -2.18962e-15 -1.06959e-07 -1.25207


Wall heat fluxes [W]
topAndBottom 0 0 0 0
left 2.98426 0 0 2.98426
right -2.81093 0 0 -2.81093
frontAndBack 0 0 0 0
sum 0.173327 0 0 0.173327

Time = 27

DILUPBiCG:  Solving for Ux, Initial residual = 0.0180134, Final residual = 1.65971e-06, No Iterations 2
DILUPBiCG:  Solving for Uy, Initial residual = 0.0339908, Final residual = 3.01925e-05, No Iterations 2
DICPCG:  Solving for p_rgh, Initial residual = 0.0495094, Final residual = 0.000351099, No Iterations 11
time step continuity errors : sum local = 0.000955807, global = 1.10908e-16, cumulative = 3.74784e-16
DILUPBiCG:  Solving for epsilon, Initial residual = 0.0205193, Final residual = 3.09234e-05, No Iterations 2
DILUPBiCG:  Solving for k, Initial residual = 0.0526659, Final residual = 0.000115858, No Iterations 2
DICPCG:  Solving for G, Initial residual = 0.0040053, Final residual = 0.000321518, No Iterations 12
BiCG:  Solving for T+T, Initial residual = 0.00161782, Final residual = 0.000107001, No Iterations 3
ExecutionTime = 0.07 s



Wall heat fluxes [W]
movingWall -0.356523 6.94058e-15 0.365319 0.00879577
left 0.155084 3.4686e-16 1.27901 1.43409
right -0.626141 -4.39873e-15 -2.04183 -2.66797
bottom -0.393468 0 0.397508 0.00403973
frontAndBack 0 0 0 0
sum -1.22105 2.88871e-15 -1.11984e-07 -1.22105


Wall heat fluxes [W]
topAndBottom 0 0 0 0
left 3.63559 0 0 3.63559
right -2.79316 0 0 -2.79316
frontAndBack 0 0 0 0
sum 0.842429 0 0 0.842429

Time = 28

DILUPBiCG:  Solving for Ux, Initial residual = 0.016257, Final residual = 1.76672e-06, No Iterations 2
DILUPBiCG:  Solving for Uy, Initial residual = 0.0318069, Final residual = 7.50827e-06, No Iterations 2
DICPCG:  Solving for p_rgh, Initial residual = 0.0475226, Final residual = 0.000353061, No Iterations 11
time step continuity errors : sum local = 0.000975366, global = 1.90582e-17, cumulative = 3.93842e-16
DILUPBiCG:  Solving for epsilon, Initial residual = 0.0185238, Final residual = 3.0176e-05, No Iterations 2
DILUPBiCG:  Solving for k, Initial residual = 0.0511533, Final residual = 0.000114194, No Iterations 2
DICPCG:  Solving for G, Initial residual = 0.00377457, Final residual = 0.000304227, No Iterations 11
BiCG:  Solving for T+T, Initial residual = 0.00157958, Final residual = 0.000141721, No Iterations 2
ExecutionTime = 0.08 s



Wall heat fluxes [W]
movingWall -0.345887 -2.68792e-17 0.354856 0.00896856
left 0.172804 -1.21401e-15 1.28613 1.45893
right -0.624244 3.52323e-15 -2.03753 -2.66177
bottom -0.392571 0 0.396542 0.00397189
frontAndBack 0 0 0 0
sum -1.1899 2.28234e-15 -7.18295e-07 -1.1899


Wall heat fluxes [W]
topAndBottom 0 0 0 0
left 2.88077 0 0 2.88077
right -2.78824 0 0 -2.78824
frontAndBack 0 0 0 0
sum 0.0925243 0 0 0.0925243

Time = 29

DILUPBiCG:  Solving for Ux, Initial residual = 0.0145512, Final residual = 2.44721e-06, No Iterations 2
DILUPBiCG:  Solving for Uy, Initial residual = 0.0287453, Final residual = 3.79191e-06, No Iterations 2
DICPCG:  Solving for p_rgh, Initial residual = 0.0440491, Final residual = 0.000294438, No Iterations 11
time step continuity errors : sum local = 0.000837209, global = -2.72903e-16, cumulative = 1.20939e-16
DILUPBiCG:  Solving for epsilon, Initial residual = 0.0164845, Final residual = 3.00987e-05, No Iterations 2
DILUPBiCG:  Solving for k, Initial residual = 0.0489933, Final residual = 0.000110119, No Iterations 2
DICPCG:  Solving for G, Initial residual = 0.00457824, Final residual = 0.00036235, No Iterations 10
BiCG:  Solving for T+T, Initial residual = 0.00152807, Final residual = 0.000150634, No Iterations 2
ExecutionTime = 0.08 s



Wall heat fluxes [W]
movingWall -0.336388 -1.43349e-15 0.345593 0.00920575
left 0.191117 1.83836e-15 1.29479 1.48591
right -0.621242 -1.76161e-14 -2.03765 -2.65889
bottom -0.392437 0 0.397263 0.00482547
frontAndBack 0 0 0 0
sum -1.15895 -1.72112e-14 -6.55454e-07 -1.15895


Wall heat fluxes [W]
topAndBottom 0 0 0 0
left 2.93046 0 0 2.93046
right -2.78328 0 0 -2.78328
frontAndBack 0 0 0 0
sum 0.147182 0 0 0.147182

Time = 30

DILUPBiCG:  Solving for Ux, Initial residual = 0.0136016, Final residual = 4.19227e-06, No Iterations 2
DILUPBiCG:  Solving for Uy, Initial residual = 0.0250453, Final residual = 4.03319e-05, No Iterations 2
DICPCG:  Solving for p_rgh, Initial residual = 0.0399056, Final residual = 0.000200971, No Iterations 11
time step continuity errors : sum local = 0.000568856, global = -4.24575e-16, cumulative = -3.03637e-16
DILUPBiCG:  Solving for epsilon, Initial residual = 0.0149558, Final residual = 3.34252e-05, No Iterations 2
DILUPBiCG:  Solving for k, Initial residual = 0.0463194, Final residual = 0.000104358, No Iterations 2
DICPCG:  Solving for G, Initial residual = 0.00399416, Final residual = 0.000318731, No Iterations 12
BiCG:  Solving for T+T, Initial residual = 0.00149973, Final residual = 9.13603e-05, No Iterations 3
ExecutionTime = 0.08 s



Wall heat fluxes [W]
movingWall -0.326903 -4.1319e-15 0.334691 0.00778876
left 0.209409 -1.87304e-15 1.30231 1.51172
right -0.618266 -1.05715e-14 -2.03211 -2.65038
bottom -0.391207 0 0.395112 0.0039056
frontAndBack 0 0 0 0
sum -1.12697 -1.65765e-14 3.32745e-07 -1.12697


Wall heat fluxes [W]
topAndBottom 0 0 0 0
left 3.55805 0 0 3.55805
right -2.76673 0 0 -2.76673
frontAndBack 0 0 0 0
sum 0.791319 0 0 0.791319

Time = 31

DILUPBiCG:  Solving for Ux, Initial residual = 0.0121432, Final residual = 5.26168e-05, No Iterations 2
DILUPBiCG:  Solving for Uy, Initial residual = 0.022883, Final residual = 8.84892e-06, No Iterations 2
DICPCG:  Solving for p_rgh, Initial residual = 0.0366883, Final residual = 0.000168447, No Iterations 11
time step continuity errors : sum local = 0.000470428, global = 1.34462e-16, cumulative = -1.69175e-16
DILUPBiCG:  Solving for epsilon, Initial residual = 0.0137659, Final residual = 4.87386e-05, No Iterations 2
DILUPBiCG:  Solving for k, Initial residual = 0.0438301, Final residual = 9.91922e-05, No Iterations 2
DICPCG:  Solving for G, Initial residual = 0.00344573, Final residual = 0.000241051, No Iterations 12
BiCG:  Solving for T+T, Initial residual = 0.00146044, Final residual = 0.000134118, No Iterations 2
ExecutionTime = 0.08 s



Wall heat fluxes [W]
movingWall -0.317921 4.21583e-15 0.325596 0.0076747
left 0.227939 -6.9372e-17 1.30878 1.53672
right -0.61632 -3.53451e-18 -2.02814 -2.64446
bottom -0.389776 0 0.393767 0.0039909
frontAndBack 0 0 0 0
sum -1.09608 4.14293e-15 3.38104e-07 -1.09608


Wall heat fluxes [W]
topAndBottom 0 0 0 0
left 2.84552 0 0 2.84552
right -2.76218 0 0 -2.76218
frontAndBack 0 0 0 0
sum 0.0833426 0 0 0.0833426

Time = 32

DILUPBiCG:  Solving for Ux, Initial residual = 0.0109795, Final residual = 1.50123e-05, No Iterations 2
DILUPBiCG:  Solving for Uy, Initial residual = 0.0202517, Final residual = 0.000195987, No Iterations 1
DICPCG:  Solving for p_rgh, Initial residual = 0.0326218, Final residual = 0.000293074, No Iterations 6
time step continuity errors : sum local = 0.00112426, global = -4.08693e-16, cumulative = -5.77868e-16
DILUPBiCG:  Solving for epsilon, Initial residual = 0.013073, Final residual = 5.30607e-07, No Iterations 3
DILUPBiCG:  Solving for k, Initial residual = 0.0414746, Final residual = 0.000153773, No Iterations 2
DICPCG:  Solving for G, Initial residual = 0.00411251, Final residual = 0.00014273, No Iterations 11
BiCG:  Solving for T+T, Initial residual = 0.00141935, Final residual = 7.86446e-05, No Iterations 3
ExecutionTime = 0.08 s



Wall heat fluxes [W]
movingWall -0.310654 7.05541e-16 0.318159 0.00750488
left 0.245825 -2.983e-15 1.31667 1.5625
right -0.613283 -1.89541e-14 -2.02852 -2.6418
bottom -0.38891 0 0.393682 0.00477219
frontAndBack 0 0 0 0
sum -1.06702 -2.12316e-14 -1.62308e-07 -1.06702


Wall heat fluxes [W]
topAndBottom 0 0 0 0
left 3.45775 0 0 3.45775
right -2.74639 0 0 -2.74639
frontAndBack 0 0 0 0
sum 0.711356 0 0 0.711356

Time = 33

DILUPBiCG:  Solving for Ux, Initial residual = 0.0103911, Final residual = 2.94057e-06, No Iterations 2
DILUPBiCG:  Solving for Uy, Initial residual = 0.0172507, Final residual = 4.99093e-06, No Iterations 2
DICPCG:  Solving for p_rgh, Initial residual = 0.0289962, Final residual = 0.000198493, No Iterations 11
time step continuity errors : sum local = 0.00056793, global = 2.43522e-17, cumulative = -5.53516e-16
DILUPBiCG:  Solving for epsilon, Initial residual = 0.012626, Final residual = 2.1552e-05, No Iterations 2
DILUPBiCG:  Solving for k, Initial residual = 0.039315, Final residual = 6.23657e-05, No Iterations 2
DICPCG:  Solving for G, Initial residual = 0.00341492, Final residual = 0.000273294, No Iterations 11
BiCG:  Solving for T+T, Initial residual = 0.00138579, Final residual = 0.000124253, No Iterations 2
ExecutionTime = 0.09 s



Wall heat fluxes [W]
movingWall -0.303086 4.8879e-15 0.309747 0.00666116
left 0.263228 2.77488e-15 1.32327 1.58649
right -0.611254 -9.25979e-15 -2.02374 -2.63499
bottom -0.386539 0 0.390726 0.00418739
frontAndBack 0 0 0 0
sum -1.03765 -1.59701e-15 -2.48069e-07 -1.03765


Wall heat fluxes [W]
topAndBottom 0 0 0 0
left 2.82178 0 0 2.82178
right -2.74213 0 0 -2.74213
frontAndBack 0 0 0 0
sum 0.0796557 0 0 0.0796557

Time = 34

DILUPBiCG:  Solving for Ux, Initial residual = 0.00959202, Final residual = 3.04694e-06, No Iterations 2
DILUPBiCG:  Solving for Uy, Initial residual = 0.0159717, Final residual = 0.000141995, No Iterations 1
DICPCG:  Solving for p_rgh, Initial residual = 0.0255778, Final residual = 0.000197622, No Iterations 6
time step continuity errors : sum local = 0.000552684, global = 1.54054e-16, cumulative = -3.99462e-16
DILUPBiCG:  Solving for epsilon, Initial residual = 0.0122557, Final residual = 1.24099e-05, No Iterations 2
DILUPBiCG:  Solving for k, Initial residual = 0.0375426, Final residual = 6.28959e-05, No Iterations 2
DICPCG:  Solving for G, Initial residual = 0.00385537, Final residual = 0.000131022, No Iterations 11
BiCG:  Solving for T+T, Initial residual = 0.00135712, Final residual = 0.000133234, No Iterations 2
ExecutionTime = 0.09 s



Wall heat fluxes [W]
movingWall -0.296936 -1.35908e-15 0.303727 0.00679087
left 0.279687 9.01836e-16 1.33055 1.61024
right -0.608317 7.94064e-15 -2.02391 -2.63223
bottom -0.384655 0 0.389638 0.00498389
frontAndBack 0 0 0 0
sum -1.01022 7.4834e-15 -1.26827e-07 -1.01022


Wall heat fluxes [W]
topAndBottom 0 0 0 0
left 2.86404 0 0 2.86404
right -2.73787 0 0 -2.73787
frontAndBack 0 0 0 0
sum 0.126163 0 0 0.126163

Time = 35

DILUPBiCG:  Solving for Ux, Initial residual = 0.00935694, Final residual = 2.10154e-06, No Iterations 2
DILUPBiCG:  Solving for Uy, Initial residual = 0.0138224, Final residual = 0.000127511, No Iterations 1
DICPCG:  Solving for p_rgh, Initial residual = 0.0223222, Final residual = 0.000212622, No Iterations 6
time step continuity errors : sum local = 0.000771244, global = 4.20369e-16, cumulative = 2.09074e-17
DILUPBiCG:  Solving for epsilon, Initial residual = 0.0118211, Final residual = 9.00609e-06, No Iterations 2
DILUPBiCG:  Solving for k, Initial residual = 0.0360603, Final residual = 5.95088e-05, No Iterations 2
DICPCG:  Solving for G, Initial residual = 0.00326529, Final residual = 0.000193819, No Iterations 11
BiCG:  Solving for T+T, Initial residual = 0.00134019, Final residual = 8.32433e-05, No Iterations 3
ExecutionTime = 0.09 s



Wall heat fluxes [W]
movingWall -0.290893 -1.37533e-15 0.296461 0.00556825
left 0.29486 6.9372e-17 1.33686 1.63172
right -0.605414 2.20545e-14 -2.0193 -2.62471
bottom -0.381621 0 0.385979 0.00435792
frontAndBack 0 0 0 0
sum -0.983068 2.07486e-14 -1.56129e-07 -0.983068


Wall heat fluxes [W]
topAndBottom 0 0 0 0
left 3.41199 0 0 3.41199
right -2.72371 0 0 -2.72371
frontAndBack 0 0 0 0
sum 0.68828 0 0 0.68828

Time = 36

DILUPBiCG:  Solving for Ux, Initial residual = 0.00853155, Final residual = 8.35076e-05, No Iterations 1
DILUPBiCG:  Solving for Uy, Initial residual = 0.0134042, Final residual = 2.2059e-05, No Iterations 2
DICPCG:  Solving for p_rgh, Initial residual = 0.0188341, Final residual = 0.000173006, No Iterations 11
time step continuity errors : sum local = 0.000498841, global = -4.92338e-17, cumulative = -2.83264e-17
DILUPBiCG:  Solving for epsilon, Initial residual = 0.0112881, Final residual = 7.81482e-06, No Iterations 2
DILUPBiCG:  Solving for k, Initial residual = 0.0346328, Final residual = 6.07426e-05, No Iterations 2
DICPCG:  Solving for G, Initial residual = 0.00290631, Final residual = 0.000149627, No Iterations 11
BiCG:  Solving for T+T, Initial residual = 0.00130848, Final residual = 0.000122625, No Iterations 2
ExecutionTime = 0.09 s



Wall heat fluxes [W]
movingWall -0.285362 -4.17601e-15 0.290833 0.00547129
left 0.308961 -1.31807e-15 1.34236 1.65132
right -0.603411 6.17627e-15 -2.01595 -2.61937
bottom -0.378278 0 0.382763 0.00448505
frontAndBack 0 0 0 0
sum -0.958089 6.82196e-16 -9.8485e-08 -0.958089


Wall heat fluxes [W]
topAndBottom 0 0 0 0
left 2.79764 0 0 2.79764
right -2.71972 0 0 -2.71972
frontAndBack 0 0 0 0
sum 0.0779144 0 0 0.0779144

Time = 37

DILUPBiCG:  Solving for Ux, Initial residual = 0.0077669, Final residual = 7.06001e-05, No Iterations 1
DILUPBiCG:  Solving for Uy, Initial residual = 0.0125482, Final residual = 4.49646e-06, No Iterations 2
DICPCG:  Solving for p_rgh, Initial residual = 0.0160705, Final residual = 0.000159276, No Iterations 11
time step continuity errors : sum local = 0.000459103, global = -3.38813e-17, cumulative = -6.22077e-17
DILUPBiCG:  Solving for epsilon, Initial residual = 0.0107925, Final residual = 7.57554e-06, No Iterations 2
DILUPBiCG:  Solving for k, Initial residual = 0.0333836, Final residual = 6.78716e-05, No Iterations 2
DICPCG:  Solving for G, Initial residual = 0.00351925, Final residual = 0.0003319, No Iterations 11
BiCG:  Solving for T+T, Initial residual = 0.00128597, Final residual = 6.90566e-05, No Iterations 3
ExecutionTime = 0.1 s



Wall heat fluxes [W]
movingWall -0.281172 1.32807e-15 0.286682 0.00551072
left 0.321676 0 1.34913 1.67081
right -0.600419 -2.64837e-15 -2.01638 -2.6168
bottom -0.375343 0 0.380572 0.00522843
frontAndBack 0 0 0 0
sum -0.935258 -1.3203e-15 -2.48677e-07 -0.935258


Wall heat fluxes [W]
topAndBottom 0 0 0 0
left 3.3358 0 0 3.3358
right -2.70599 0 0 -2.70599
frontAndBack 0 0 0 0
sum 0.629811 0 0 0.629811

Time = 38

DILUPBiCG:  Solving for Ux, Initial residual = 0.00785652, Final residual = 7.17713e-05, No Iterations 1
DILUPBiCG:  Solving for Uy, Initial residual = 0.0115922, Final residual = 7.35311e-06, No Iterations 2
DICPCG:  Solving for p_rgh, Initial residual = 0.0140556, Final residual = 0.00013911, No Iterations 11
time step continuity errors : sum local = 0.000404045, global = -2.13082e-16, cumulative = -2.75289e-16
DILUPBiCG:  Solving for epsilon, Initial residual = 0.0102837, Final residual = 7.25501e-06, No Iterations 2
DILUPBiCG:  Solving for k, Initial residual = 0.0321398, Final residual = 7.7739e-05, No Iterations 2
DICPCG:  Solving for G, Initial residual = 0.00313835, Final residual = 0.000154363, No Iterations 11
BiCG:  Solving for T+T, Initial residual = 0.00125655, Final residual = 0.000119159, No Iterations 2
ExecutionTime = 0.1 s



Wall heat fluxes [W]
movingWall -0.276654 -2.77118e-15 0.281439 0.00478428
left 0.333148 -6.9372e-17 1.3549 1.68805
right -0.598283 -7.50657e-15 -2.01223 -2.61051
bottom -0.371271 0 0.375891 0.00462073
frontAndBack 0 0 0 0
sum -0.913061 -1.03471e-14 -1.88673e-08 -0.913061


Wall heat fluxes [W]
topAndBottom 0 0 0 0
left 2.78728 0 0 2.78728
right -2.70206 0 0 -2.70206
frontAndBack 0 0 0 0
sum 0.0852137 0 0 0.0852137

Time = 39

DILUPBiCG:  Solving for Ux, Initial residual = 0.00745583, Final residual = 6.52329e-05, No Iterations 1
DILUPBiCG:  Solving for Uy, Initial residual = 0.0119349, Final residual = 2.66351e-06, No Iterations 2
DICPCG:  Solving for p_rgh, Initial residual = 0.0131272, Final residual = 0.000107756, No Iterations 11
time step continuity errors : sum local = 0.000316878, global = -1.07998e-16, cumulative = -3.83287e-16
DILUPBiCG:  Solving for epsilon, Initial residual = 0.00985389, Final residual = 6.83453e-06, No Iterations 2
DILUPBiCG:  Solving for k, Initial residual = 0.0309153, Final residual = 8.68287e-05, No Iterations 2
DICPCG:  Solving for G, Initial residual = 0.00330684, Final residual = 0.000263896, No Iterations 12
BiCG:  Solving for T+T, Initial residual = 0.001244, Final residual = 6.6439e-05, No Iterations 3
ExecutionTime = 0.1 s



Wall heat fluxes [W]
movingWall -0.273293 -1.43522e-15 0.27823 0.00493694
left 0.343389 2.08116e-16 1.36124 1.70463
right -0.595195 -5.29658e-15 -2.01248 -2.60768
bottom -0.367734 0 0.373009 0.00527467
frontAndBack 0 0 0 0
sum -0.892832 -6.52369e-15 1.76206e-07 -0.892832


Wall heat fluxes [W]
topAndBottom 0 0 0 0
left 3.28236 0 0 3.28236
right -2.68933 0 0 -2.68933
frontAndBack 0 0 0 0
sum 0.593032 0 0 0.593032

Time = 40

DILUPBiCG:  Solving for Ux, Initial residual = 0.00778113, Final residual = 6.78659e-05, No Iterations 1
DILUPBiCG:  Solving for Uy, Initial residual = 0.0111695, Final residual = 4.25063e-06, No Iterations 2
DICPCG:  Solving for p_rgh, Initial residual = 0.0131388, Final residual = 0.000115477, No Iterations 10
time step continuity errors : sum local = 0.000339063, global = -2.91697e-16, cumulative = -6.74984e-16
DILUPBiCG:  Solving for epsilon, Initial residual = 0.0093836, Final residual = 6.29472e-06, No Iterations 2
DILUPBiCG:  Solving for k, Initial residual = 0.0296419, Final residual = 8.92706e-05, No Iterations 2
DICPCG:  Solving for G, Initial residual = 0.00295394, Final residual = 0.000134973, No Iterations 11
BiCG:  Solving for T+T, Initial residual = 0.00121618, Final residual = 0.000118877, No Iterations 2
ExecutionTime = 0.1 s



Wall heat fluxes [W]
movingWall -0.26959 -3.59015e-15 0.273868 0.00427758
left 0.352467 -1.04058e-15 1.36675 1.71922
right -0.592876 -7.95156e-15 -2.00859 -2.60146
bottom -0.363261 0 0.367971 0.00470989
frontAndBack 0 0 0 0
sum -0.87326 -1.25823e-14 -1.38821e-08 -0.87326


Wall heat fluxes [W]
topAndBottom 0 0 0 0
left 2.77537 0 0 2.77537
right -2.68561 0 0 -2.68561
frontAndBack 0 0 0 0
sum 0.0897589 0 0 0.0897589

Time = 41

DILUPBiCG:  Solving for Ux, Initial residual = 0.00744795, Final residual = 6.64161e-05, No Iterations 1
DILUPBiCG:  Solving for Uy, Initial residual = 0.0115061, Final residual = 6.51863e-06, No Iterations 2
DICPCG:  Solving for p_rgh, Initial residual = 0.0136657, Final residual = 6.94475e-05, No Iterations 10
time step continuity errors : sum local = 0.000204861, global = -2.64698e-17, cumulative = -7.01454e-16
DILUPBiCG:  Solving for epsilon, Initial residual = 0.00896189, Final residual = 5.86856e-06, No Iterations 2
DILUPBiCG:  Solving for k, Initial residual = 0.0284348, Final residual = 8.75545e-05, No Iterations 2
DICPCG:  Solving for G, Initial residual = 0.00314307, Final residual = 0.000252619, No Iterations 12
BiCG:  Solving for T+T, Initial residual = 0.00121034, Final residual = 6.27027e-05, No Iterations 3
ExecutionTime = 0.1 s



Wall heat fluxes [W]
movingWall -0.26686 2.06336e-15 0.271362 0.00450216
left 0.360589 -1.94242e-15 1.37278 1.73337
right -0.589605 -8.86543e-16 -2.00875 -2.59835
bottom -0.359373 0 0.364604 0.00523094
frontAndBack 0 0 0 0
sum -0.855249 -7.65598e-16 1.77954e-07 -0.855249


Wall heat fluxes [W]
topAndBottom 0 0 0 0
left 3.23701 0 0 3.23701
right -2.67384 0 0 -2.67384
frontAndBack 0 0 0 0
sum 0.563169 0 0 0.563169

Time = 42

DILUPBiCG:  Solving for Ux, Initial residual = 0.00776882, Final residual = 6.76017e-05, No Iterations 1
DILUPBiCG:  Solving for Uy, Initial residual = 0.0108617, Final residual = 0.000102704, No Iterations 1
DICPCG:  Solving for p_rgh, Initial residual = 0.0148407, Final residual = 6.85235e-05, No Iterations 10
time step continuity errors : sum local = 0.000203246, global = 5.15896e-16, cumulative = -1.85558e-16
DILUPBiCG:  Solving for epsilon, Initial residual = 0.0086019, Final residual = 5.45324e-06, No Iterations 2
DILUPBiCG:  Solving for k, Initial residual = 0.0272657, Final residual = 8.14211e-05, No Iterations 2
DICPCG:  Solving for G, Initial residual = 0.00282832, Final residual = 0.00010165, No Iterations 11
BiCG:  Solving for T+T, Initial residual = 0.00118258, Final residual = 4.86332e-05, No Iterations 3
ExecutionTime = 0.11 s



Wall heat fluxes [W]
movingWall -0.263794 3.5737e-15 0.267624 0.00382957
left 0.367829 1.04058e-15 1.37804 1.74587
right -0.586931 1.98868e-14 -2.00508 -2.59201
bottom -0.354833 0 0.35941 0.00457699
frontAndBack 0 0 0 0
sum -0.837729 2.45011e-14 -2.2075e-08 -0.837729


Wall heat fluxes [W]
topAndBottom 0 0 0 0
left 3.12299 0 0 3.12299
right -2.66236 0 0 -2.66236
frontAndBack 0 0 0 0
sum 0.460627 0 0 0.460627

Time = 43

DILUPBiCG:  Solving for Ux, Initial residual = 0.0073579, Final residual = 6.85476e-05, No Iterations 1
DILUPBiCG:  Solving for Uy, Initial residual = 0.0113935, Final residual = 0.000105868, No Iterations 1
DICPCG:  Solving for p_rgh, Initial residual = 0.0159367, Final residual = 0.000148692, No Iterations 5
time step continuity errors : sum local = 0.000611289, global = 5.71747e-17, cumulative = -1.28383e-16
DILUPBiCG:  Solving for epsilon, Initial residual = 0.00830275, Final residual = 5.09544e-06, No Iterations 2
DILUPBiCG:  Solving for k, Initial residual = 0.026161, Final residual = 7.47698e-05, No Iterations 2
DICPCG:  Solving for G, Initial residual = 0.00293643, Final residual = 0.000248055, No Iterations 12
BiCG:  Solving for T+T, Initial residual = 0.0011533, Final residual = 0.00011275, No Iterations 2
ExecutionTime = 0.11 s



Wall heat fluxes [W]
movingWall -0.261457 -3.51525e-15 0.265642 0.00418448
left 0.37426 2.49739e-15 1.3837 1.75796
right -0.584078 3.09901e-15 -2.00529 -2.58936
bottom -0.350758 0 0.35594 0.00518164
frontAndBack 0 0 0 0
sum -0.822034 2.08116e-15 1.47731e-07 -0.822034


Wall heat fluxes [W]
topAndBottom 0 0 0 0
left 2.76447 0 0 2.76447
right -2.65899 0 0 -2.65899
frontAndBack 0 0 0 0
sum 0.10548 0 0 0.10548

Time = 44

DILUPBiCG:  Solving for Ux, Initial residual = 0.00741161, Final residual = 6.66533e-05, No Iterations 1
DILUPBiCG:  Solving for Uy, Initial residual = 0.0108153, Final residual = 9.99709e-05, No Iterations 1
DICPCG:  Solving for p_rgh, Initial residual = 0.0163191, Final residual = 0.000105949, No Iterations 10
time step continuity errors : sum local = 0.000315079, global = 2.48287e-16, cumulative = 1.19903e-16
DILUPBiCG:  Solving for epsilon, Initial residual = 0.0079873, Final residual = 4.77945e-06, No Iterations 2
DILUPBiCG:  Solving for k, Initial residual = 0.0250473, Final residual = 6.83626e-05, No Iterations 2
DICPCG:  Solving for G, Initial residual = 0.00315108, Final residual = 0.000295643, No Iterations 11
BiCG:  Solving for T+T, Initial residual = 0.00116237, Final residual = 6.77317e-05, No Iterations 3
ExecutionTime = 0.11 s



Wall heat fluxes [W]
movingWall -0.259234 3.54047e-15 0.263176 0.00394236
left 0.380197 -6.9372e-16 1.38959 1.76979
right -0.580466 8.84316e-15 -2.00425 -2.58472
bottom -0.346673 0 0.351482 0.00480931
frontAndBack 0 0 0 0
sum -0.806177 1.16899e-14 1.04877e-07 -0.806177


Wall heat fluxes [W]
topAndBottom 0 0 0 0
left 3.1554 0 0 3.1554
right -2.649 0 0 -2.649
frontAndBack 0 0 0 0
sum 0.5064 0 0 0.5064

Time = 45

DILUPBiCG:  Solving for Ux, Initial residual = 0.0076046, Final residual = 6.64344e-05, No Iterations 1
DILUPBiCG:  Solving for Uy, Initial residual = 0.0108172, Final residual = 0.000101534, No Iterations 1
DICPCG:  Solving for p_rgh, Initial residual = 0.0175335, Final residual = 0.000135306, No Iterations 5
time step continuity errors : sum local = 0.000500875, global = -3.49401e-17, cumulative = 8.49632e-17
DILUPBiCG:  Solving for epsilon, Initial residual = 0.00764756, Final residual = 4.50034e-06, No Iterations 2
DILUPBiCG:  Solving for k, Initial residual = 0.0239033, Final residual = 6.17033e-05, No Iterations 2
DICPCG:  Solving for G, Initial residual = 0.00260658, Final residual = 7.16442e-05, No Iterations 11
BiCG:  Solving for T+T, Initial residual = 0.00114114, Final residual = 5.55097e-05, No Iterations 3
ExecutionTime = 0.11 s



Wall heat fluxes [W]
movingWall -0.25665 -6.93576e-18 0.260071 0.00342055
left 0.385619 -4.09295e-15 1.39437 1.77998
right -0.577336 5.30704e-15 -2.00109 -2.57842
bottom -0.342346 0 0.346652 0.00430671
frontAndBack 0 0 0 0
sum -0.790712 1.20716e-15 -8.61838e-08 -0.790713


Wall heat fluxes [W]
topAndBottom 0 0 0 0
left 3.05456 0 0 3.05456
right -2.63933 0 0 -2.63933
frontAndBack 0 0 0 0
sum 0.415227 0 0 0.415227

Time = 46

DILUPBiCG:  Solving for Ux, Initial residual = 0.00719557, Final residual = 6.3408e-05, No Iterations 1
DILUPBiCG:  Solving for Uy, Initial residual = 0.0111263, Final residual = 0.000102521, No Iterations 1
DICPCG:  Solving for p_rgh, Initial residual = 0.0181934, Final residual = 0.000145183, No Iterations 5
time step continuity errors : sum local = 0.000501704, global = 3.0361e-16, cumulative = 3.88574e-16
DILUPBiCG:  Solving for epsilon, Initial residual = 0.00731109, Final residual = 4.23765e-06, No Iterations 2
DILUPBiCG:  Solving for k, Initial residual = 0.0228169, Final residual = 5.66479e-05, No Iterations 2
DICPCG:  Solving for G, Initial residual = 0.0026703, Final residual = 0.000225966, No Iterations 12
BiCG:  Solving for T+T, Initial residual = 0.00111392, Final residual = 0.000109429, No Iterations 2
ExecutionTime = 0.11 s



Wall heat fluxes [W]
movingWall -0.254662 2.85077e-15 0.258413 0.00375091
left 0.3907 3.60734e-15 1.39953 1.79023
right -0.574052 5.74772e-15 -2.00118 -2.57523
bottom -0.338574 0 0.343229 0.00465505
frontAndBack 0 0 0 0
sum -0.776588 1.22058e-14 1.43761e-07 -0.776588


Wall heat fluxes [W]
topAndBottom 0 0 0 0
left 2.73468 0 0 2.73468
right -2.6363 0 0 -2.6363
frontAndBack 0 0 0 0
sum 0.0983772 0 0 0.0983772

Time = 47

DILUPBiCG:  Solving for Ux, Initial residual = 0.00719669, Final residual = 6.26538e-05, No Iterations 1
DILUPBiCG:  Solving for Uy, Initial residual = 0.0105448, Final residual = 9.96417e-05, No Iterations 1
DICPCG:  Solving for p_rgh, Initial residual = 0.0181908, Final residual = 0.000144661, No Iterations 5
time step continuity errors : sum local = 0.000437687, global = -7.94093e-18, cumulative = 3.80633e-16
DILUPBiCG:  Solving for epsilon, Initial residual = 0.00697248, Final residual = 3.99217e-06, No Iterations 2
DILUPBiCG:  Solving for k, Initial residual = 0.0217306, Final residual = 5.20502e-05, No Iterations 2
DICPCG:  Solving for G, Initial residual = 0.0028348, Final residual = 0.000271386, No Iterations 11
BiCG:  Solving for T+T, Initial residual = 0.00112442, Final residual = 7.15095e-05, No Iterations 3
ExecutionTime = 0.12 s



Wall heat fluxes [W]
movingWall -0.252642 7.01702e-16 0.256211 0.00356888
left 0.395568 6.24348e-16 1.40482 1.80039
right -0.570101 -3.0946e-15 -2.00025 -2.57035
bottom -0.334921 0 0.339223 0.00430196
frontAndBack 0 0 0 0
sum -0.762095 -1.76855e-15 1.40513e-07 -0.762095


Wall heat fluxes [W]
topAndBottom 0 0 0 0
left 3.09302 0 0 3.09302
right -2.62748 0 0 -2.62748
frontAndBack 0 0 0 0
sum 0.465532 0 0 0.465532

Time = 48

DILUPBiCG:  Solving for Ux, Initial residual = 0.00731571, Final residual = 6.27957e-05, No Iterations 1
DILUPBiCG:  Solving for Uy, Initial residual = 0.0104626, Final residual = 0.000100149, No Iterations 1
DICPCG:  Solving for p_rgh, Initial residual = 0.0188201, Final residual = 0.000172987, No Iterations 5
time step continuity errors : sum local = 0.000618596, global = -3.49269e-16, cumulative = 3.1364e-17
DILUPBiCG:  Solving for epsilon, Initial residual = 0.00662817, Final residual = 3.75902e-06, No Iterations 2
DILUPBiCG:  Solving for k, Initial residual = 0.0206625, Final residual = 4.80762e-05, No Iterations 2
DICPCG:  Solving for G, Initial residual = 0.00235097, Final residual = 6.99545e-05, No Iterations 10
BiCG:  Solving for T+T, Initial residual = 0.00110735, Final residual = 6.16505e-05, No Iterations 3
ExecutionTime = 0.12 s



Wall heat fluxes [W]
movingWall -0.250251 -6.40956e-15 0.253378 0.00312656
left 0.400282 -1.17932e-15 1.40911 1.8094
right -0.566626 -7.52359e-15 -1.99742 -2.56405
bottom -0.331169 0 0.334931 0.00376192
frontAndBack 0 0 0 0
sum -0.747765 -1.51125e-14 3.16494e-08 -0.747765


Wall heat fluxes [W]
topAndBottom 0 0 0 0
left 3.00534 0 0 3.00534
right -2.61879 0 0 -2.61879
frontAndBack 0 0 0 0
sum 0.386555 0 0 0.386555

Time = 49

DILUPBiCG:  Solving for Ux, Initial residual = 0.00693116, Final residual = 5.97665e-05, No Iterations 1
DILUPBiCG:  Solving for Uy, Initial residual = 0.010667, Final residual = 9.81476e-05, No Iterations 1
DICPCG:  Solving for p_rgh, Initial residual = 0.0187655, Final residual = 0.000129683, No Iterations 6
time step continuity errors : sum local = 0.000641302, global = -1.74301e-16, cumulative = -1.42937e-16
DILUPBiCG:  Solving for epsilon, Initial residual = 0.00621462, Final residual = 3.58065e-06, No Iterations 2
DILUPBiCG:  Solving for k, Initial residual = 0.0195924, Final residual = 4.45516e-05, No Iterations 2
DICPCG:  Solving for G, Initial residual = 0.00240544, Final residual = 0.000190732, No Iterations 12
BiCG:  Solving for T+T, Initial residual = 0.0010806, Final residual = 0.000107448, No Iterations 1
ExecutionTime = 0.12 s



Wall heat fluxes [W]
movingWall -0.24846 6.86747e-16 0.25178 0.00332006
left 0.40497 -2.56676e-15 1.41375 1.81872
right -0.562879 -5.75395e-15 -1.9976 -2.56048
bottom -0.328116 0 0.33207 0.00395374
frontAndBack 0 0 0 0
sum -0.734485 -7.63396e-15 1.49884e-07 -0.734485


Wall heat fluxes [W]
topAndBottom 0 0 0 0
left 2.55891 0 0 2.55891
right -2.61769 0 0 -2.61769
frontAndBack 0 0 0 0
sum -0.0587781 0 0 -0.0587781

Time = 50

DILUPBiCG:  Solving for Ux, Initial residual = 0.00692493, Final residual = 5.96246e-05, No Iterations 1
DILUPBiCG:  Solving for Uy, Initial residual = 0.0102532, Final residual = 9.99834e-05, No Iterations 1
DICPCG:  Solving for p_rgh, Initial residual = 0.0192886, Final residual = 0.000177546, No Iterations 10
time step continuity errors : sum local = 0.000566965, global = -1.48231e-16, cumulative = -2.91168e-16
DILUPBiCG:  Solving for epsilon, Initial residual = 0.00578123, Final residual = 3.43428e-06, No Iterations 2
DILUPBiCG:  Solving for k, Initial residual = 0.0184753, Final residual = 4.06395e-05, No Iterations 2
DICPCG:  Solving for G, Initial residual = 0.00248437, Final residual = 0.000191778, No Iterations 12
BiCG:  Solving for T+T, Initial residual = 0.00104378, Final residual = 7.12138e-05, No Iterations 3
ExecutionTime = 0.12 s



Wall heat fluxes [W]
movingWall -0.246487 -2.83342e-15 0.249796 0.00330904
left 0.409565 1.59556e-15 1.41839 1.82796
right -0.558597 -7.96945e-15 -1.99701 -2.55561
bottom -0.325105 0 0.328823 0.00371807
frontAndBack 0 0 0 0
sum -0.720623 -9.20731e-15 1.81665e-07 -0.720623


Wall heat fluxes [W]
topAndBottom 0 0 0 0
left 3.12902 0 0 3.12902
right -2.6095 0 0 -2.6095
frontAndBack 0 0 0 0
sum 0.519517 0 0 0.519517

Time = 51

DILUPBiCG:  Solving for Ux, Initial residual = 0.00705481, Final residual = 5.81242e-05, No Iterations 1
DILUPBiCG:  Solving for Uy, Initial residual = 0.00987368, Final residual = 9.26369e-05, No Iterations 1
DICPCG:  Solving for p_rgh, Initial residual = 0.0180804, Final residual = 7.63904e-05, No Iterations 6
time step continuity errors : sum local = 0.000395845, global = 1.68083e-17, cumulative = -2.7436e-16
DILUPBiCG:  Solving for epsilon, Initial residual = 0.00540647, Final residual = 3.27552e-06, No Iterations 2
DILUPBiCG:  Solving for k, Initial residual = 0.0173394, Final residual = 3.76714e-05, No Iterations 2
DICPCG:  Solving for G, Initial residual = 0.0019244, Final residual = 7.29722e-05, No Iterations 10
BiCG:  Solving for T+T, Initial residual = 0.00107003, Final residual = 5.66687e-05, No Iterations 3
ExecutionTime = 0.12 s



Wall heat fluxes [W]
movingWall -0.243919 -3.56326e-15 0.246691 0.00277169
left 0.414216 4.16232e-16 1.4219 1.83612
right -0.555205 5.31205e-15 -1.99349 -2.5487
bottom -0.32191 0 0.324904 0.00299339
frontAndBack 0 0 0 0
sum -0.706819 2.16502e-15 3.48e-08 -0.706819


Wall heat fluxes [W]
topAndBottom 0 0 0 0
left 2.95788 0 0 2.95788
right -2.60129 0 0 -2.60129
frontAndBack 0 0 0 0
sum 0.356592 0 0 0.356592

Time = 52

DILUPBiCG:  Solving for Ux, Initial residual = 0.00655723, Final residual = 5.52234e-05, No Iterations 1
DILUPBiCG:  Solving for Uy, Initial residual = 0.00996095, Final residual = 8.82184e-05, No Iterations 1
DICPCG:  Solving for p_rgh, Initial residual = 0.0171133, Final residual = 7.42397e-05, No Iterations 11
time step continuity errors : sum local = 0.00024721, global = -7.83505e-17, cumulative = -3.5271e-16
DILUPBiCG:  Solving for epsilon, Initial residual = 0.00510496, Final residual = 3.10432e-06, No Iterations 2
DILUPBiCG:  Solving for k, Initial residual = 0.0163264, Final residual = 3.52936e-05, No Iterations 2
DICPCG:  Solving for G, Initial residual = 0.00218143, Final residual = 0.000147945, No Iterations 12
BiCG:  Solving for T+T, Initial residual = 0.00104151, Final residual = 0.000102286, No Iterations 2
ExecutionTime = 0.13 s



Wall heat fluxes [W]
movingWall -0.242035 1.74731e-18 0.245364 0.00332931
left 0.418904 -1.94242e-15 1.4261 1.845
right -0.551676 -1.5409e-18 -1.9946 -2.54627
bottom -0.319555 0 0.323136 0.00358144
frontAndBack 0 0 0 0
sum -0.694362 -1.94221e-15 1.28741e-07 -0.694362


Wall heat fluxes [W]
topAndBottom 0 0 0 0
left 2.68372 0 0 2.68372
right -2.59863 0 0 -2.59863
frontAndBack 0 0 0 0
sum 0.0850965 0 0 0.0850965

Time = 53

DILUPBiCG:  Solving for Ux, Initial residual = 0.00655671, Final residual = 5.43874e-05, No Iterations 1
DILUPBiCG:  Solving for Uy, Initial residual = 0.00912854, Final residual = 8.84836e-05, No Iterations 1
DICPCG:  Solving for p_rgh, Initial residual = 0.0163298, Final residual = 0.000111244, No Iterations 6
time step continuity errors : sum local = 0.000566362, global = -1.39628e-17, cumulative = -3.66673e-16
DILUPBiCG:  Solving for epsilon, Initial residual = 0.0048362, Final residual = 2.92418e-06, No Iterations 2
DILUPBiCG:  Solving for k, Initial residual = 0.0153236, Final residual = 3.34583e-05, No Iterations 2
DICPCG:  Solving for G, Initial residual = 0.00232301, Final residual = 0.000160677, No Iterations 12
BiCG:  Solving for T+T, Initial residual = 0.00104842, Final residual = 7.00378e-05, No Iterations 3
ExecutionTime = 0.13 s



Wall heat fluxes [W]
movingWall -0.239941 7.266e-16 0.243107 0.00316583
left 0.423738 -9.71208e-16 1.43048 1.85422
right -0.547704 -8.85637e-16 -1.99397 -2.54167
bottom -0.31728 0 0.320376 0.0030966
frontAndBack 0 0 0 0
sum -0.681187 -1.13025e-15 1.95389e-07 -0.681187


Wall heat fluxes [W]
topAndBottom 0 0 0 0
left 3.00513 0 0 3.00513
right -2.59077 0 0 -2.59077
frontAndBack 0 0 0 0
sum 0.414355 0 0 0.414355

Time = 54

DILUPBiCG:  Solving for Ux, Initial residual = 0.00667267, Final residual = 5.60978e-05, No Iterations 1
DILUPBiCG:  Solving for Uy, Initial residual = 0.00904606, Final residual = 1.26715e-06, No Iterations 2
DICPCG:  Solving for p_rgh, Initial residual = 0.016111, Final residual = 7.93582e-05, No Iterations 11
time step continuity errors : sum local = 0.000266173, global = -3.02814e-16, cumulative = -6.69488e-16
DILUPBiCG:  Solving for epsilon, Initial residual = 0.00457607, Final residual = 2.74526e-06, No Iterations 2
DILUPBiCG:  Solving for k, Initial residual = 0.0144027, Final residual = 3.20927e-05, No Iterations 2
DICPCG:  Solving for G, Initial residual = 0.00185523, Final residual = 0.000117948, No Iterations 11
BiCG:  Solving for T+T, Initial residual = 0.00102873, Final residual = 0.00010213, No Iterations 2
ExecutionTime = 0.13 s



Wall heat fluxes [W]
movingWall -0.237417 2.83854e-15 0.24023 0.00281333
left 0.428609 -6.38222e-15 1.43392 1.86253
right -0.544378 -8.8593e-15 -1.99179 -2.53617
bottom -0.3149 0 0.317637 0.00273745
frontAndBack 0 0 0 0
sum -0.668085 -1.2403e-14 -5.85787e-08 -0.668085


Wall heat fluxes [W]
topAndBottom 0 0 0 0
left 2.64881 0 0 2.64881
right -2.58849 0 0 -2.58849
frontAndBack 0 0 0 0
sum 0.0603166 0 0 0.0603166

Time = 55

DILUPBiCG:  Solving for Ux, Initial residual = 0.00626361, Final residual = 5.12464e-05, No Iterations 1
DILUPBiCG:  Solving for Uy, Initial residual = 0.0092139, Final residual = 8.55599e-05, No Iterations 1
DICPCG:  Solving for p_rgh, Initial residual = 0.0152659, Final residual = 0.000131394, No Iterations 6
time step continuity errors : sum local = 0.000666551, global = 1.24935e-16, cumulative = -5.44552e-16
DILUPBiCG:  Solving for epsilon, Initial residual = 0.00431141, Final residual = 2.57119e-06, No Iterations 2
DILUPBiCG:  Solving for k, Initial residual = 0.0135245, Final residual = 3.18453e-05, No Iterations 2
DICPCG:  Solving for G, Initial residual = 0.00203329, Final residual = 0.000152462, No Iterations 12
BiCG:  Solving for T+T, Initial residual = 0.00102385, Final residual = 6.79347e-05, No Iterations 3
ExecutionTime = 0.13 s



Wall heat fluxes [W]
movingWall -0.235303 -7.56249e-16 0.238459 0.00315632
left 0.43364 4.37044e-15 1.43776 1.8714
right -0.540524 4.44013e-16 -1.99224 -2.53276
bottom -0.313117 0 0.316018 0.00290103
frontAndBack 0 0 0 0
sum -0.655304 4.0582e-15 1.16744e-07 -0.655304


Wall heat fluxes [W]
topAndBottom 0 0 0 0
left 2.98029 0 0 2.98029
right -2.58104 0 0 -2.58104
frontAndBack 0 0 0 0
sum 0.39925 0 0 0.39925

Time = 56

DILUPBiCG:  Solving for Ux, Initial residual = 0.00645614, Final residual = 5.41855e-05, No Iterations 1
DILUPBiCG:  Solving for Uy, Initial residual = 0.00839399, Final residual = 8.87814e-07, No Iterations 2
DICPCG:  Solving for p_rgh, Initial residual = 0.014671, Final residual = 7.57051e-05, No Iterations 11
time step continuity errors : sum local = 0.000255327, global = 8.94679e-17, cumulative = -4.55084e-16
DILUPBiCG:  Solving for epsilon, Initial residual = 0.00406851, Final residual = 2.41707e-06, No Iterations 2
DILUPBiCG:  Solving for k, Initial residual = 0.0127719, Final residual = 3.13662e-05, No Iterations 2
DICPCG:  Solving for G, Initial residual = 0.00176688, Final residual = 8.825e-05, No Iterations 11
BiCG:  Solving for T+T, Initial residual = 0.001001, Final residual = 5.34147e-05, No Iterations 3
ExecutionTime = 0.13 s



Wall heat fluxes [W]
movingWall -0.232709 2.14243e-15 0.235441 0.0027317
left 0.438679 0 1.44104 1.87972
right -0.537285 1.76841e-15 -1.98999 -2.52728
bottom -0.311109 0 0.313507 0.00239722
frontAndBack 0 0 0 0
sum -0.642424 3.91084e-15 -5.63543e-08 -0.642424


Wall heat fluxes [W]
topAndBottom 0 0 0 0
left 2.9034 0 0 2.9034
right -2.57321 0 0 -2.57321
frontAndBack 0 0 0 0
sum 0.330192 0 0 0.330192

Time = 57

DILUPBiCG:  Solving for Ux, Initial residual = 0.00603855, Final residual = 4.95509e-05, No Iterations 1
DILUPBiCG:  Solving for Uy, Initial residual = 0.00850319, Final residual = 8.28777e-05, No Iterations 1
DICPCG:  Solving for p_rgh, Initial residual = 0.0138104, Final residual = 0.000124225, No Iterations 6
time step continuity errors : sum local = 0.000636151, global = 3.33499e-17, cumulative = -4.21735e-16
DILUPBiCG:  Solving for epsilon, Initial residual = 0.0038093, Final residual = 2.25803e-06, No Iterations 2
DILUPBiCG:  Solving for k, Initial residual = 0.011986, Final residual = 3.16388e-05, No Iterations 2
DICPCG:  Solving for G, Initial residual = 0.00188897, Final residual = 0.000153523, No Iterations 12
BiCG:  Solving for T+T, Initial residual = 0.000974332, Final residual = 9.14181e-05, No Iterations 2
ExecutionTime = 0.14 s



Wall heat fluxes [W]
movingWall -0.230523 1.44585e-15 0.233588 0.0030656
left 0.443875 -9.01836e-16 1.44464 1.88851
right -0.534115 2.65859e-15 -1.99054 -2.52466
bottom -0.30961 0 0.31232 0.00271058
frontAndBack 0 0 0 0
sum -0.630373 3.20261e-15 9.08751e-08 -0.630373


Wall heat fluxes [W]
topAndBottom 0 0 0 0
left 2.63591 0 0 2.63591
right -2.57094 0 0 -2.57094
frontAndBack 0 0 0 0
sum 0.0649766 0 0 0.0649766

Time = 58

DILUPBiCG:  Solving for Ux, Initial residual = 0.00604852, Final residual = 5.12999e-05, No Iterations 1
DILUPBiCG:  Solving for Uy, Initial residual = 0.00791229, Final residual = 8.58235e-07, No Iterations 2
DICPCG:  Solving for p_rgh, Initial residual = 0.013138, Final residual = 6.90225e-05, No Iterations 11
time step continuity errors : sum local = 0.000233258, global = 8.65562e-17, cumulative = -3.35178e-16
DILUPBiCG:  Solving for epsilon, Initial residual = 0.00356739, Final residual = 2.12468e-06, No Iterations 2
DILUPBiCG:  Solving for k, Initial residual = 0.0112707, Final residual = 3.16589e-05, No Iterations 2
DICPCG:  Solving for G, Initial residual = 0.00200548, Final residual = 0.000147201, No Iterations 12
BiCG:  Solving for T+T, Initial residual = 0.00097253, Final residual = 6.68667e-05, No Iterations 3
ExecutionTime = 0.14 s



Wall heat fluxes [W]
movingWall -0.228239 2.18407e-15 0.231221 0.00298151
left 0.449058 3.81546e-15 1.44838 1.89744
right -0.53061 -4.43322e-15 -1.99026 -2.52087
bottom -0.308148 0 0.310659 0.00251108
frontAndBack 0 0 0 0
sum -0.61794 1.56631e-15 1.51577e-07 -0.617939


Wall heat fluxes [W]
topAndBottom 0 0 0 0
left 2.92569 0 0 2.92569
right -2.56395 0 0 -2.56395
frontAndBack 0 0 0 0
sum 0.361738 0 0 0.361738

Time = 59

DILUPBiCG:  Solving for Ux, Initial residual = 0.00609123, Final residual = 5.08343e-05, No Iterations 1
DILUPBiCG:  Solving for Uy, Initial residual = 0.00768736, Final residual = 9.04623e-07, No Iterations 2
DICPCG:  Solving for p_rgh, Initial residual = 0.0125528, Final residual = 0.000122636, No Iterations 6
time step continuity errors : sum local = 0.000618575, global = -6.03511e-17, cumulative = -3.95529e-16
DILUPBiCG:  Solving for epsilon, Initial residual = 0.0033404, Final residual = 2.00176e-06, No Iterations 2
DILUPBiCG:  Solving for k, Initial residual = 0.0105595, Final residual = 3.19458e-05, No Iterations 2
DICPCG:  Solving for G, Initial residual = 0.00162049, Final residual = 5.00119e-05, No Iterations 11
BiCG:  Solving for T+T, Initial residual = 0.000955575, Final residual = 8.91524e-05, No Iterations 2
ExecutionTime = 0.14 s



Wall heat fluxes [W]
movingWall -0.225605 3.98348e-15 0.228269 0.00266382
left 0.454357 -6.59034e-15 1.45138 1.90574
right -0.527741 4.4317e-15 -1.98829 -2.51603
bottom -0.30651 0 0.308643 0.00213387
frontAndBack 0 0 0 0
sum -0.605498 1.82484e-15 -9.299e-08 -0.605498


Wall heat fluxes [W]
topAndBottom 0 0 0 0
left 2.60977 0 0 2.60977
right -2.56196 0 0 -2.56196
frontAndBack 0 0 0 0
sum 0.0478096 0 0 0.0478096

Time = 60

DILUPBiCG:  Solving for Ux, Initial residual = 0.00575046, Final residual = 4.92509e-05, No Iterations 1
DILUPBiCG:  Solving for Uy, Initial residual = 0.0080316, Final residual = 9.74845e-07, No Iterations 2
DICPCG:  Solving for p_rgh, Initial residual = 0.0120772, Final residual = 5.74043e-05, No Iterations 11
time step continuity errors : sum local = 0.000193357, global = -4.92337e-17, cumulative = -4.44763e-16
DILUPBiCG:  Solving for epsilon, Initial residual = 0.0031299, Final residual = 1.883e-06, No Iterations 2
DILUPBiCG:  Solving for k, Initial residual = 0.00991663, Final residual = 3.20853e-05, No Iterations 2
DICPCG:  Solving for G, Initial residual = 0.00173046, Final residual = 0.00014066, No Iterations 12
BiCG:  Solving for T+T, Initial residual = 0.000944117, Final residual = 6.19853e-05, No Iterations 3
ExecutionTime = 0.14 s



Wall heat fluxes [W]
movingWall -0.223342 -7.37891e-16 0.22629 0.00294792
left 0.459612 -3.4686e-16 1.45471 1.91432
right -0.524472 -8.25268e-19 -1.98872 -2.51319
bottom -0.305292 0 0.307718 0.00242634
frontAndBack 0 0 0 0
sum -0.593495 -1.08558e-15 7.44766e-08 -0.593495


Wall heat fluxes [W]
topAndBottom 0 0 0 0
left 2.90192 0 0 2.90192
right -2.55535 0 0 -2.55535
frontAndBack 0 0 0 0
sum 0.346569 0 0 0.346569

Time = 61

DILUPBiCG:  Solving for Ux, Initial residual = 0.00582359, Final residual = 4.89375e-05, No Iterations 1
DILUPBiCG:  Solving for Uy, Initial residual = 0.00728237, Final residual = 9.70235e-07, No Iterations 2
DICPCG:  Solving for p_rgh, Initial residual = 0.011539, Final residual = 4.4706e-05, No Iterations 11
time step continuity errors : sum local = 0.000147358, global = -3.91753e-17, cumulative = -4.83938e-16
DILUPBiCG:  Solving for epsilon, Initial residual = 0.00293851, Final residual = 1.75644e-06, No Iterations 2
DILUPBiCG:  Solving for k, Initial residual = 0.00931441, Final residual = 3.20417e-05, No Iterations 2
DICPCG:  Solving for G, Initial residual = 0.00156502, Final residual = 4.47892e-05, No Iterations 11
BiCG:  Solving for T+T, Initial residual = 0.000923301, Final residual = 8.5975e-05, No Iterations 2
ExecutionTime = 0.15 s



Wall heat fluxes [W]
movingWall -0.220706 -1.79143e-15 0.223304 0.0025987
left 0.464909 1.59556e-15 1.45761 1.92252
right -0.521846 1.35605e-18 -1.98668 -2.50853
bottom -0.303767 0 0.305771 0.00200355
frontAndBack 0 0 0 0
[...]
right -0.392955 -2.67885e-15 -1.93647 -2.32942
bottom -0.216879 0 0.216879 4.21646e-12
frontAndBack 0 0 0 0
sum -8.55725e-10 6.63356e-16 9.40636e-13 -8.54783e-10


Wall heat fluxes [W]
topAndBottom 0 0 0 0
left 2.32942 0 0 2.32942
right -2.32942 0 0 -2.32942
frontAndBack 0 0 0 0
sum 5.15814e-10 0 0 5.15814e-10

Time = 986

DILUPBiCG:  Solving for Ux, Initial residual = 9.26432e-12, Final residual = 9.2616e-14, No Iterations 1
DILUPBiCG:  Solving for Uy, Initial residual = 1.22864e-11, Final residual = 3.67813e-15, No Iterations 2
DICPCG:  Solving for p_rgh, Initial residual = 1.53272e-11, Final residual = 1.50303e-13, No Iterations 5
time step continuity errors : sum local = 7.46918e-13, global = 5.45277e-17, cumulative = -9.28406e-15
DILUPBiCG:  Solving for epsilon, Initial residual = 1.00607e-11, Final residual = 5.09878e-15, No Iterations 2
DILUPBiCG:  Solving for k, Initial residual = 1.99097e-11, Final residual = 3.54026e-14, No Iterations 2
DICPCG:  Solving for G, Initial residual = 3.68586e-12, Final residual = 8.70695e-14, No Iterations 11
BiCG:  Solving for T+T, Initial residual = 1.68018e-12, Final residual = 1.06132e-13, No Iterations 3
ExecutionTime = 2.1 s



Wall heat fluxes [W]
movingWall -0.0928052 -3.24118e-15 0.0928052 4.66191e-12
left 0.702639 3.74609e-15 1.62678 2.32942
right -0.392955 4.46025e-16 -1.93647 -2.32942
bottom -0.216879 0 0.216879 3.44491e-12
frontAndBack 0 0 0 0
sum -8.36583e-10 9.50935e-16 5.34295e-13 -8.36048e-10


Wall heat fluxes [W]
topAndBottom 0 0 0 0
left 2.32942 0 0 2.32942
right -2.32942 0 0 -2.32942
frontAndBack 0 0 0 0
sum 4.30571e-10 0 0 4.30571e-10

Time = 987

DILUPBiCG:  Solving for Ux, Initial residual = 8.69239e-12, Final residual = 2.0373e-15, No Iterations 2
DILUPBiCG:  Solving for Uy, Initial residual = 1.27081e-11, Final residual = 2.98316e-15, No Iterations 2
DICPCG:  Solving for p_rgh, Initial residual = 1.5014e-11, Final residual = 1.05864e-13, No Iterations 10
time step continuity errors : sum local = 4.0239e-13, global = 8.20563e-17, cumulative = -9.202e-15
DILUPBiCG:  Solving for epsilon, Initial residual = 9.85728e-12, Final residual = 4.97997e-15, No Iterations 2
DILUPBiCG:  Solving for k, Initial residual = 1.94904e-11, Final residual = 3.45497e-14, No Iterations 2
DICPCG:  Solving for G, Initial residual = 3.89274e-12, Final residual = 3.50322e-13, No Iterations 11
BiCG:  Solving for T+T, Initial residual = 1.61995e-12, Final residual = 1.56613e-13, No Iterations 2
ExecutionTime = 2.1 s



Wall heat fluxes [W]
movingWall -0.0928052 8.03655e-16 0.0928052 5.19178e-12
left 0.702639 3.19111e-15 1.62678 2.32942
right -0.392955 -1.33924e-15 -1.93647 -2.32942
bottom -0.216879 0 0.216879 4.16731e-12
frontAndBack 0 0 0 0
sum -8.19067e-10 2.65552e-15 1.09421e-12 -8.1797e-10


Wall heat fluxes [W]
topAndBottom 0 0 0 0
left 2.32942 0 0 2.32942
right -2.32942 0 0 -2.32942
frontAndBack 0 0 0 0
sum 8.44858e-11 0 0 8.44858e-11

Time = 988

DILUPBiCG:  Solving for Ux, Initial residual = 8.6382e-12, Final residual = 1.91043e-15, No Iterations 2
DILUPBiCG:  Solving for Uy, Initial residual = 1.17463e-11, Final residual = 3.21955e-15, No Iterations 2
DICPCG:  Solving for p_rgh, Initial residual = 1.49936e-11, Final residual = 1.45681e-13, No Iterations 5
time step continuity errors : sum local = 7.20056e-13, global = -3.66871e-16, cumulative = -9.56888e-15
DILUPBiCG:  Solving for epsilon, Initial residual = 9.62426e-12, Final residual = 4.88066e-15, No Iterations 2
DILUPBiCG:  Solving for k, Initial residual = 1.90403e-11, Final residual = 3.38377e-14, No Iterations 2
DICPCG:  Solving for G, Initial residual = 4.05407e-12, Final residual = 3.00227e-13, No Iterations 11
BiCG:  Solving for T+T, Initial residual = 1.60687e-12, Final residual = 1.26922e-13, No Iterations 3
ExecutionTime = 2.1 s



Wall heat fluxes [W]
movingWall -0.0928052 6.05419e-16 0.0928052 4.92902e-12
left 0.702639 -8.87962e-15 1.62678 2.32942
right -0.392955 -4.91059e-15 -1.93647 -2.32942
bottom -0.216879 0 0.216879 3.7278e-12
frontAndBack 0 0 0 0
sum -8.00899e-10 -1.31848e-14 6.7038e-13 -8.00241e-10


Wall heat fluxes [W]
topAndBottom 0 0 0 0
left 2.32942 0 0 2.32942
right -2.32942 0 0 -2.32942
frontAndBack 0 0 0 0
sum 4.69043e-10 0 0 4.69043e-10

Time = 989

DILUPBiCG:  Solving for Ux, Initial residual = 8.65393e-12, Final residual = 8.63813e-14, No Iterations 1
DILUPBiCG:  Solving for Uy, Initial residual = 1.1708e-11, Final residual = 3.56805e-15, No Iterations 2
DICPCG:  Solving for p_rgh, Initial residual = 1.44241e-11, Final residual = 1.04573e-13, No Iterations 10
time step continuity errors : sum local = 3.97469e-13, global = -1.64642e-16, cumulative = -9.73352e-15
DILUPBiCG:  Solving for epsilon, Initial residual = 9.43011e-12, Final residual = 4.7717e-15, No Iterations 2
DILUPBiCG:  Solving for k, Initial residual = 1.86403e-11, Final residual = 3.31002e-14, No Iterations 2
DICPCG:  Solving for G, Initial residual = 3.55944e-12, Final residual = 1.06612e-13, No Iterations 11
BiCG:  Solving for T+T, Initial residual = 1.57027e-12, Final residual = 1.56061e-13, No Iterations 2
ExecutionTime = 2.1 s



Wall heat fluxes [W]
movingWall -0.0928052 -6.23173e-16 0.0928052 4.30531e-12
left 0.702639 -2.91362e-15 1.62678 2.32942
right -0.392955 -3.57425e-15 -1.93647 -2.32942
bottom -0.216879 0 0.216879 3.27699e-12
frontAndBack 0 0 0 0
sum -7.83e-10 -7.11105e-15 -8.24341e-14 -7.8309e-10


Wall heat fluxes [W]
topAndBottom 0 0 0 0
left 2.32942 0 0 2.32942
right -2.32942 0 0 -2.32942
frontAndBack 0 0 0 0
sum 6.69322e-11 0 0 6.69322e-11

Time = 990

DILUPBiCG:  Solving for Ux, Initial residual = 8.20665e-12, Final residual = 1.84444e-15, No Iterations 2
DILUPBiCG:  Solving for Uy, Initial residual = 1.19385e-11, Final residual = 2.36951e-15, No Iterations 2
DICPCG:  Solving for p_rgh, Initial residual = 1.44707e-11, Final residual = 1.379e-13, No Iterations 5
time step continuity errors : sum local = 6.85826e-13, global = 1.5776e-16, cumulative = -9.57576e-15
DILUPBiCG:  Solving for epsilon, Initial residual = 9.20427e-12, Final residual = 4.66548e-15, No Iterations 2
DILUPBiCG:  Solving for k, Initial residual = 1.82196e-11, Final residual = 3.23789e-14, No Iterations 2
DICPCG:  Solving for G, Initial residual = 3.67077e-12, Final residual = 2.96627e-13, No Iterations 11
BiCG:  Solving for T+T, Initial residual = 1.54364e-12, Final residual = 1.18989e-13, No Iterations 3
ExecutionTime = 2.1 s



Wall heat fluxes [W]
movingWall -0.0928052 -2.67304e-15 0.0928052 4.87327e-12
left 0.702639 1.10995e-15 1.62678 2.32942
right -0.392955 9.37801e-15 -1.93647 -2.32942
bottom -0.216879 0 0.216879 3.76485e-12
frontAndBack 0 0 0 0
sum -7.65931e-10 7.81492e-15 3.35038e-13 -7.65588e-10


Wall heat fluxes [W]
topAndBottom 0 0 0 0
left 2.32942 0 0 2.32942
right -2.32942 0 0 -2.32942
frontAndBack 0 0 0 0
sum 4.61631e-10 0 0 4.61631e-10

Time = 991

DILUPBiCG:  Solving for Ux, Initial residual = 8.27014e-12, Final residual = 1.78961e-15, No Iterations 2
DILUPBiCG:  Solving for Uy, Initial residual = 1.10298e-11, Final residual = 4.16731e-15, No Iterations 2
DICPCG:  Solving for p_rgh, Initial residual = 1.3782e-11, Final residual = 9.79139e-14, No Iterations 10
time step continuity errors : sum local = 3.72891e-13, global = -4.76456e-18, cumulative = -9.58052e-15
DILUPBiCG:  Solving for epsilon, Initial residual = 9.0266e-12, Final residual = 4.56348e-15, No Iterations 2
DILUPBiCG:  Solving for k, Initial residual = 1.78411e-11, Final residual = 3.16772e-14, No Iterations 2
DICPCG:  Solving for G, Initial residual = 3.62742e-12, Final residual = 1.10014e-13, No Iterations 11
BiCG:  Solving for T+T, Initial residual = 1.50309e-12, Final residual = 9.51615e-14, No Iterations 3
ExecutionTime = 2.11 s



Wall heat fluxes [W]
movingWall -0.0928052 6.57573e-16 0.0928052 4.24392e-12
left 0.702639 1.52618e-15 1.62678 2.32942
right -0.392955 -3.57212e-15 -1.93647 -2.32942
bottom -0.216879 0 0.216879 3.16736e-12
frontAndBack 0 0 0 0
sum -7.48979e-10 -1.38836e-15 5.09259e-13 -7.48471e-10


Wall heat fluxes [W]
topAndBottom 0 0 0 0
left 2.32942 0 0 2.32942
right -2.32942 0 0 -2.32942
frontAndBack 0 0 0 0
sum 3.87984e-10 0 0 3.87984e-10

Time = 992

DILUPBiCG:  Solving for Ux, Initial residual = 7.80513e-12, Final residual = 1.76274e-15, No Iterations 2
DILUPBiCG:  Solving for Uy, Initial residual = 1.12675e-11, Final residual = 2.42535e-15, No Iterations 2
DICPCG:  Solving for p_rgh, Initial residual = 1.33877e-11, Final residual = 1.28814e-13, No Iterations 5
time step continuity errors : sum local = 6.45669e-13, global = -5.14043e-16, cumulative = -1.00946e-14
DILUPBiCG:  Solving for epsilon, Initial residual = 8.81123e-12, Final residual = 4.46305e-15, No Iterations 2
DILUPBiCG:  Solving for k, Initial residual = 1.74442e-11, Final residual = 3.09666e-14, No Iterations 2
DICPCG:  Solving for G, Initial residual = 3.7296e-12, Final residual = 2.95298e-13, No Iterations 11
BiCG:  Solving for T+T, Initial residual = 1.45088e-12, Final residual = 1.40141e-13, No Iterations 2
ExecutionTime = 2.11 s



Wall heat fluxes [W]
movingWall -0.0928052 -7.99307e-16 0.0928052 4.62068e-12
left 0.702639 -1.06833e-14 1.62678 2.32942
right -0.392955 -9.82453e-15 -1.93647 -2.32942
bottom -0.216879 0 0.216879 3.68636e-12
frontAndBack 0 0 0 0
sum -7.33183e-10 -2.13071e-14 7.63556e-13 -7.3244e-10


Wall heat fluxes [W]
topAndBottom 0 0 0 0
left 2.32942 0 0 2.32942
right -2.32942 0 0 -2.32942
frontAndBack 0 0 0 0
sum 7.54365e-11 0 0 7.54365e-11

Time = 993

DILUPBiCG:  Solving for Ux, Initial residual = 7.70926e-12, Final residual = 1.76567e-15, No Iterations 2
DILUPBiCG:  Solving for Uy, Initial residual = 1.05854e-11, Final residual = 3.43154e-15, No Iterations 2
DICPCG:  Solving for p_rgh, Initial residual = 1.34679e-11, Final residual = 9.64123e-14, No Iterations 10
time step continuity errors : sum local = 3.66632e-13, global = -9.3703e-17, cumulative = -1.01883e-14
DILUPBiCG:  Solving for epsilon, Initial residual = 8.63376e-12, Final residual = 4.36907e-15, No Iterations 2
DILUPBiCG:  Solving for k, Initial residual = 1.70614e-11, Final residual = 3.02783e-14, No Iterations 2
DICPCG:  Solving for G, Initial residual = 3.81994e-12, Final residual = 2.81265e-13, No Iterations 11
BiCG:  Solving for T+T, Initial residual = 1.43854e-12, Final residual = 1.13848e-13, No Iterations 3
ExecutionTime = 2.11 s



Wall heat fluxes [W]
movingWall -0.0928052 -2.81526e-16 0.0928052 4.44843e-12
left 0.702639 -1.10995e-15 1.62678 2.32942
right -0.392955 -8.91832e-16 -1.93647 -2.32942
bottom -0.216879 0 0.216879 3.39037e-12
frontAndBack 0 0 0 0
sum -7.17043e-10 -2.28331e-15 6.73794e-13 -7.16371e-10


Wall heat fluxes [W]
topAndBottom 0 0 0 0
left 2.32942 0 0 2.32942
right -2.32942 0 0 -2.32942
frontAndBack 0 0 0 0
sum 4.19339e-10 0 0 4.19339e-10

Time = 994

DILUPBiCG:  Solving for Ux, Initial residual = 7.77353e-12, Final residual = 7.74529e-14, No Iterations 1
DILUPBiCG:  Solving for Uy, Initial residual = 1.04099e-11, Final residual = 2.73292e-15, No Iterations 2
DICPCG:  Solving for p_rgh, Initial residual = 1.28589e-11, Final residual = 1.26016e-13, No Iterations 5
time step continuity errors : sum local = 6.20433e-13, global = -6.78685e-16, cumulative = -1.0867e-14
DILUPBiCG:  Solving for epsilon, Initial residual = 8.42762e-12, Final residual = 4.27641e-15, No Iterations 2
DILUPBiCG:  Solving for k, Initial residual = 1.66799e-11, Final residual = 2.96631e-14, No Iterations 2
DICPCG:  Solving for G, Initial residual = 3.27957e-12, Final residual = 7.58163e-14, No Iterations 11
BiCG:  Solving for T+T, Initial residual = 1.40713e-12, Final residual = 1.40464e-13, No Iterations 2
ExecutionTime = 2.11 s



Wall heat fluxes [W]
movingWall -0.0928052 -2.90755e-15 0.0928052 3.96014e-12
left 0.702639 -1.20707e-14 1.62678 2.32942
right -0.392955 -1.33958e-14 -1.93647 -2.32942
bottom -0.216879 0 0.216879 3.03826e-12
frontAndBack 0 0 0 0
sum -7.01141e-10 -2.83741e-14 7.93837e-13 -7.00376e-10


Wall heat fluxes [W]
topAndBottom 0 0 0 0
left 2.32942 0 0 2.32942
right -2.32942 0 0 -2.32942
frontAndBack 0 0 0 0
sum 6.20894e-11 0 0 6.20894e-11

Time = 995

DILUPBiCG:  Solving for Ux, Initial residual = 7.32861e-12, Final residual = 1.70474e-15, No Iterations 2
DILUPBiCG:  Solving for Uy, Initial residual = 1.06237e-11, Final residual = 2.44399e-15, No Iterations 2
DICPCG:  Solving for p_rgh, Initial residual = 1.29747e-11, Final residual = 9.69083e-14, No Iterations 10
time step continuity errors : sum local = 3.67766e-13, global = 3.44107e-17, cumulative = -1.08325e-14
DILUPBiCG:  Solving for epsilon, Initial residual = 8.25593e-12, Final residual = 4.17699e-15, No Iterations 2
DILUPBiCG:  Solving for k, Initial residual = 1.63226e-11, Final residual = 2.89696e-14, No Iterations 2
DICPCG:  Solving for G, Initial residual = 3.32579e-12, Final residual = 2.85633e-13, No Iterations 11
BiCG:  Solving for T+T, Initial residual = 1.38261e-12, Final residual = 1.0654e-13, No Iterations 3
ExecutionTime = 2.11 s



Wall heat fluxes [W]
movingWall -0.0928052 -3.78393e-16 0.0928052 4.24982e-12
left 0.702639 2.91362e-15 1.62678 2.32942
right -0.392955 -4.46401e-15 -1.93647 -2.32942
bottom -0.216879 0 0.216879 3.24851e-12
frontAndBack 0 0 0 0
sum -6.85695e-10 -1.92878e-15 2.46581e-13 -6.8545e-10


Wall heat fluxes [W]
topAndBottom 0 0 0 0
left 2.32942 0 0 2.32942
right -2.32942 0 0 -2.32942
frontAndBack 0 0 0 0
sum 4.15064e-10 0 0 4.15064e-10

Time = 996

DILUPBiCG:  Solving for Ux, Initial residual = 7.42529e-12, Final residual = 1.55577e-15, No Iterations 2
DILUPBiCG:  Solving for Uy, Initial residual = 9.96038e-12, Final residual = 2.73434e-15, No Iterations 2
DICPCG:  Solving for p_rgh, Initial residual = 1.23114e-11, Final residual = 1.20438e-13, No Iterations 5
time step continuity errors : sum local = 6.00712e-13, global = -2.23934e-16, cumulative = -1.10565e-14
DILUPBiCG:  Solving for epsilon, Initial residual = 8.06455e-12, Final residual = 4.0895e-15, No Iterations 2
DILUPBiCG:  Solving for k, Initial residual = 1.59627e-11, Final residual = 2.83849e-14, No Iterations 2
DICPCG:  Solving for G, Initial residual = 2.98296e-12, Final residual = 8.76587e-14, No Iterations 11
BiCG:  Solving for T+T, Initial residual = 1.34735e-12, Final residual = 8.53313e-14, No Iterations 3
ExecutionTime = 2.12 s



Wall heat fluxes [W]
movingWall -0.0928052 1.87161e-16 0.0928052 3.85168e-12
left 0.702639 -6.9372e-15 1.62678 2.32942
right -0.392955 -1.78582e-15 -1.93647 -2.32942
bottom -0.216879 0 0.216879 2.8938e-12
frontAndBack 0 0 0 0
sum -6.70567e-10 -8.53586e-15 8.08742e-13 -6.69767e-10


Wall heat fluxes [W]
topAndBottom 0 0 0 0
left 2.32942 0 0 2.32942
right -2.32942 0 0 -2.32942
frontAndBack 0 0 0 0
sum 3.5099e-10 0 0 3.5099e-10

Time = 997

DILUPBiCG:  Solving for Ux, Initial residual = 6.96568e-12, Final residual = 1.63358e-15, No Iterations 2
DILUPBiCG:  Solving for Uy, Initial residual = 1.00709e-11, Final residual = 2.54355e-15, No Iterations 2
DICPCG:  Solving for p_rgh, Initial residual = 1.20209e-11, Final residual = 8.3039e-14, No Iterations 10
time step continuity errors : sum local = 3.15989e-13, global = 1.42937e-17, cumulative = -1.10422e-14
DILUPBiCG:  Solving for epsilon, Initial residual = 7.90355e-12, Final residual = 3.99475e-15, No Iterations 2
DILUPBiCG:  Solving for k, Initial residual = 1.56274e-11, Final residual = 2.77043e-14, No Iterations 2
DICPCG:  Solving for G, Initial residual = 3.44153e-12, Final residual = 2.88068e-13, No Iterations 11
BiCG:  Solving for T+T, Initial residual = 1.29886e-12, Final residual = 1.25941e-13, No Iterations 2
ExecutionTime = 2.12 s



Wall heat fluxes [W]
movingWall -0.0928052 -5.15134e-16 0.0928052 4.10265e-12
left 0.702639 -1.52618e-15 1.62678 2.32942
right -0.392955 5.3591e-15 -1.93647 -2.32942
bottom -0.216879 0 0.216879 3.26028e-12
frontAndBack 0 0 0 0
sum -6.56412e-10 3.31778e-15 7.17704e-13 -6.55691e-10


Wall heat fluxes [W]
topAndBottom 0 0 0 0
left 2.32942 0 0 2.32942
right -2.32942 0 0 -2.32942
frontAndBack 0 0 0 0
sum 6.7069e-11 0 0 6.7069e-11

Time = 998

DILUPBiCG:  Solving for Ux, Initial residual = 6.92063e-12, Final residual = 1.53265e-15, No Iterations 2
DILUPBiCG:  Solving for Uy, Initial residual = 9.47677e-12, Final residual = 2.46411e-15, No Iterations 2
DICPCG:  Solving for p_rgh, Initial residual = 1.20194e-11, Final residual = 1.1675e-13, No Iterations 5
time step continuity errors : sum local = 5.74947e-13, global = -8.20563e-17, cumulative = -1.11242e-14
DILUPBiCG:  Solving for epsilon, Initial residual = 7.71506e-12, Final residual = 3.91479e-15, No Iterations 2
DILUPBiCG:  Solving for k, Initial residual = 1.52652e-11, Final residual = 2.71289e-14, No Iterations 2
DICPCG:  Solving for G, Initial residual = 3.35185e-12, Final residual = 2.72603e-13, No Iterations 11
BiCG:  Solving for T+T, Initial residual = 1.28944e-12, Final residual = 1.02457e-13, No Iterations 3
ExecutionTime = 2.12 s



Wall heat fluxes [W]
movingWall -0.0928052 -1.12677e-15 0.0928052 3.97572e-12
left 0.702639 -2.77488e-15 1.62678 2.32942
right -0.392955 4.46321e-16 -1.93647 -2.32942
bottom -0.216879 0 0.216879 3.03349e-12
frontAndBack 0 0 0 0
sum -6.41909e-10 -3.45533e-15 5.88529e-13 -6.41324e-10


Wall heat fluxes [W]
topAndBottom 0 0 0 0
left 2.32942 0 0 2.32942
right -2.32942 0 0 -2.32942
frontAndBack 0 0 0 0
sum 3.80162e-10 0 0 3.80162e-10

Time = 999

DILUPBiCG:  Solving for Ux, Initial residual = 6.93981e-12, Final residual = 6.92929e-14, No Iterations 1
DILUPBiCG:  Solving for Uy, Initial residual = 9.35548e-12, Final residual = 2.89192e-15, No Iterations 2
DICPCG:  Solving for p_rgh, Initial residual = 1.15531e-11, Final residual = 8.41027e-14, No Iterations 10
time step continuity errors : sum local = 3.20074e-13, global = 2.69992e-16, cumulative = -1.08542e-14
DILUPBiCG:  Solving for epsilon, Initial residual = 7.55871e-12, Final residual = 3.82738e-15, No Iterations 2
DILUPBiCG:  Solving for k, Initial residual = 1.49425e-11, Final residual = 2.65343e-14, No Iterations 2
DICPCG:  Solving for G, Initial residual = 3.01392e-12, Final residual = 6.05536e-14, No Iterations 11
BiCG:  Solving for T+T, Initial residual = 1.25887e-12, Final residual = 1.25817e-13, No Iterations 2
ExecutionTime = 2.12 s



Wall heat fluxes [W]
movingWall -0.0928052 3.51532e-15 0.0928052 3.53498e-12
left 0.702639 2.91362e-15 1.62678 2.32942
right -0.392955 4.91128e-15 -1.93647 -2.32942
bottom -0.216879 0 0.216879 2.70314e-12
frontAndBack 0 0 0 0
sum -6.277e-10 1.13402e-14 5.67824e-13 -6.27121e-10


Wall heat fluxes [W]
topAndBottom 0 0 0 0
left 2.32942 0 0 2.32942
right -2.32942 0 0 -2.32942
frontAndBack 0 0 0 0
sum 5.4472e-11 0 0 5.4472e-11

Time = 1000

DILUPBiCG:  Solving for Ux, Initial residual = 6.57839e-12, Final residual = 1.47937e-15, No Iterations 2
DILUPBiCG:  Solving for Uy, Initial residual = 9.49017e-12, Final residual = 1.9504e-15, No Iterations 2
DICPCG:  Solving for p_rgh, Initial residual = 1.15732e-11, Final residual = 1.10431e-13, No Iterations 5
time step continuity errors : sum local = 5.48196e-13, global = -3.97047e-17, cumulative = -1.0894e-14
DILUPBiCG:  Solving for epsilon, Initial residual = 7.37747e-12, Final residual = 3.74186e-15, No Iterations 2
DILUPBiCG:  Solving for k, Initial residual = 1.46041e-11, Final residual = 2.59536e-14, No Iterations 2
DICPCG:  Solving for G, Initial residual = 3.13574e-12, Final residual = 1.97884e-13, No Iterations 11
BiCG:  Solving for T+T, Initial residual = 1.23844e-12, Final residual = 9.52758e-14, No Iterations 3
ExecutionTime = 2.13 s



Wall heat fluxes [W]
movingWall -0.0928052 -4.36356e-15 0.0928052 3.88302e-12
left 0.702639 8.32464e-16 1.62678 2.32942
right -0.392955 2.23313e-15 -1.93647 -2.32942
bottom -0.216879 0 0.216879 2.99538e-12
frontAndBack 0 0 0 0
sum -6.13974e-10 -1.29797e-15 6.80178e-13 -6.13295e-10


Wall heat fluxes [W]
topAndBottom 0 0 0 0
left 2.32942 0 0 2.32942
right -2.32942 0 0 -2.32942
frontAndBack 0 0 0 0
sum 3.68749e-10 0 0 3.68749e-10

End

