/*---------------------------------------------------------------------------*\
| =========                 |                                                 |
| \\      /  F ield         | OpenFOAM Extend Project: Open source CFD        |
|  \\    /   O peration     | Version:  1.6-ext                               |
|   \\  /    A nd           | Web:      www.extend-project.de                 |
|    \\/     M anipulation  |                                                 |
\*---------------------------------------------------------------------------*/
Build  : 1.6-ext-daa8fb2a98e6
Exec   : chipAirCoolingSimpleFoam
Date   : Nov 29 2011
Time   : 22:11:46
Host   : ubuntu
PID    : 322
Case   : /home/user/ChipAirCoolingClient/run/tutorial1_fineSolid
nProcs : 1
SigFpe : Enabling floating point exception trapping (FOAM_SIGFPE).

// * * * * * * * * * * * * * * * * * * * * * * * * * * * * * * * * * * * * * //
Create time

Create mesh for time = 0


Reading g
Reading transportProperties

Calculating field g.h

Reading field p_rgh

Reading field U

Reading field T

Reading/calculating face flux field phi

Selecting incompressible transport model Newtonian
Selecting RAS turbulence model kEpsilon
kEpsilonCoeffs
{
    Cmu             0.09;
    C1              1.44;
    C2              1.92;
    alphaEps        0.76923;
    sigmaEps        1.3;
}

Reading field kappaEff

Creating radiation model

Selecting radiationModel P1
Selecting absorptionEmissionModel constantAbsorptionEmission
Selecting scatterModel constantScatter
Reading field Tsolid

Reading solid thermal properties
Selecting thermal model multiMaterialZones
Selecting thermal model constant
Selecting thermal model constant
Selecting thermal gap model constant
Reading solid diffusivity k


Starting time loop

--> FOAM Warning : 
    From function dlLibraryTable::open(const dictionary& dict, const word& libsEntry, const TablePtr tablePtr)
    in file lnInclude/dlLibraryTableTemplates.C at line 68
    library "libairbusMaterialModels.so" did not introduce any new entries

Time = 1

DILUPBiCG:  Solving for Ux, Initial residual = 1, Final residual = 9.72759e-05, No Iterations 2
DILUPBiCG:  Solving for Uy, Initial residual = 1, Final residual = 0.000174731, No Iterations 2
DICPCG:  Solving for p_rgh, Initial residual = 1, Final residual = 0.00985949, No Iterations 5
time step continuity errors : sum local = 0.00481111, global = 2.0845e-18, cumulative = 2.0845e-18
DILUPBiCG:  Solving for epsilon, Initial residual = 0.0778063, Final residual = 0.000142604, No Iterations 2
DILUPBiCG:  Solving for k, Initial residual = 1, Final residual = 0.00249972, No Iterations 2
DICPCG:  Solving for G, Initial residual = 1, Final residual = 0.0255384, No Iterations 11
Before T+T solve
BiCG:  Solving for T+T, Initial residual = 0.394314, Final residual = 0.030254, No Iterations 3
Tres = -0.537914
TsRes = -32.8972
ExecutionTime = 0.02 s



Wall heat fluxes [W]
movingWall 0.00247612 0 8.04921e-07 0.00247692
left 6.41121e-07 0 -1.20093e-06 -5.59811e-07
right -0.54976 0 8.04921e-07 -0.549759
bottom 0.00519769 0 -1.20093e-06 0.00519649
frontAndBack 0 0 0 0
sum -0.542085 0 -7.92022e-07 -0.542086


Wall heat fluxes [W]
topAndBottom 0 0 0 0
left -3.86532 0 0 -3.86532
right -33.443 0 0 -33.443
frontAndBack 0 0 0 0
sum -37.3083 0 0 -37.3083

Time = 2

DILUPBiCG:  Solving for Ux, Initial residual = 0.888119, Final residual = 9.22582e-05, No Iterations 2
DILUPBiCG:  Solving for Uy, Initial residual = 0.823501, Final residual = 0.00720923, No Iterations 1
DICPCG:  Solving for p_rgh, Initial residual = 0.890882, Final residual = 0.00653453, No Iterations 6
time step continuity errors : sum local = 0.0220319, global = -3.86591e-16, cumulative = -3.84507e-16
DILUPBiCG:  Solving for epsilon, Initial residual = 0.0242197, Final residual = 3.05924e-05, No Iterations 2
DILUPBiCG:  Solving for k, Initial residual = 0.650647, Final residual = 0.000809081, No Iterations 2
DICPCG:  Solving for G, Initial residual = 0.995241, Final residual = 0.0327412, No Iterations 13
Before T+T solve
BiCG:  Solving for T+T, Initial residual = 0.0315827, Final residual = 0.00263541, No Iterations 5
Tres = -1.03735
TsRes = -13.519
ExecutionTime = 0.03 s



Wall heat fluxes [W]
movingWall -0.273642 -7.61804e-20 0.385319 0.111677
left 0.0106546 -4.23413e-21 0.386564 0.397219
right -0.502528 -1.7368e-14 -1.15143 -1.65396
bottom -0.249244 0 0.379551 0.130307
frontAndBack 0 0 0 0
sum -1.01476 -1.73681e-14 3.86093e-06 -1.01476


Wall heat fluxes [W]
topAndBottom 0 0 0 0
left 16.6336 0 0 16.6336
right -15.1386 0 0 -15.1386
frontAndBack 0 0 0 0
sum 1.49501 0 0 1.49501

Time = 3

DILUPBiCG:  Solving for Ux, Initial residual = 0.349846, Final residual = 2.42085e-05, No Iterations 2
DILUPBiCG:  Solving for Uy, Initial residual = 0.561315, Final residual = 0.0046155, No Iterations 1
DICPCG:  Solving for p_rgh, Initial residual = 0.471913, Final residual = 0.00239819, No Iterations 6
time step continuity errors : sum local = 0.00797076, global = 6.04834e-17, cumulative = -3.24023e-16
DILUPBiCG:  Solving for epsilon, Initial residual = 0.0757838, Final residual = 4.25621e-05, No Iterations 2
DILUPBiCG:  Solving for k, Initial residual = 0.217871, Final residual = 0.000286265, No Iterations 2
DICPCG:  Solving for G, Initial residual = 0.153692, Final residual = 0.00548537, No Iterations 11
Before T+T solve
BiCG:  Solving for T+T, Initial residual = 0.0117327, Final residual = 0.000471206, No Iterations 6
Tres = -0.997541
TsRes = -8.62075
ExecutionTime = 0.03 s



Wall heat fluxes [W]
movingWall -0.257542 -6.67563e-15 0.265251 0.00770827
left 0.014438 -1.30208e-16 0.520727 0.535165
right -0.493449 1.14392e-14 -0.997205 -1.49065
bottom -0.209003 0 0.21122 0.0022168
frontAndBack 0 0 0 0
sum -0.945557 4.63333e-15 -6.83164e-06 -0.945563


Wall heat fluxes [W]
topAndBottom 0 0 0 0
left 36.1871 0 0 36.1871
right -10.2471 0 0 -10.2471
frontAndBack 0 0 0 0
sum 25.94 0 0 25.94

Time = 4

DILUPBiCG:  Solving for Ux, Initial residual = 0.175382, Final residual = 0.00165789, No Iterations 1
DILUPBiCG:  Solving for Uy, Initial residual = 0.298815, Final residual = 0.00259961, No Iterations 1
DICPCG:  Solving for p_rgh, Initial residual = 0.170088, Final residual = 0.00145434, No Iterations 6
time step continuity errors : sum local = 0.0051367, global = 1.27915e-16, cumulative = -1.96108e-16
DILUPBiCG:  Solving for epsilon, Initial residual = 0.118712, Final residual = 9.98546e-05, No Iterations 2
DILUPBiCG:  Solving for k, Initial residual = 0.13198, Final residual = 0.0001613, No Iterations 2
DICPCG:  Solving for G, Initial residual = 0.0324728, Final residual = 0.00101831, No Iterations 13
Before T+T solve
BiCG:  Solving for T+T, Initial residual = 0.00781292, Final residual = 0.00064691, No Iterations 5
Tres = -1.03306
TsRes = -6.19719
ExecutionTime = 0.03 s



Wall heat fluxes [W]
movingWall -0.262826 2.44402e-15 0.276826 0.0140002
left 0.0183134 4.06477e-19 0.547584 0.565898
right -0.518412 2.73271e-15 -1.0583 -1.57671
bottom -0.220413 0 0.233888 0.0134748
frontAndBack 0 0 0 0
sum -0.983338 5.17713e-15 -2.8008e-07 -0.983338


Wall heat fluxes [W]
topAndBottom 0 0 0 0
left 34.8417 0 0 34.8417
right -7.97567 0 0 -7.97567
frontAndBack 0 0 0 0
sum 26.866 0 0 26.866

Time = 5

DILUPBiCG:  Solving for Ux, Initial residual = 0.122038, Final residual = 0.00101964, No Iterations 1
DILUPBiCG:  Solving for Uy, Initial residual = 0.173369, Final residual = 0.00140866, No Iterations 1
DICPCG:  Solving for p_rgh, Initial residual = 0.108361, Final residual = 0.000983866, No Iterations 11
time step continuity errors : sum local = 0.00265582, global = -3.83812e-17, cumulative = -2.34489e-16
DILUPBiCG:  Solving for epsilon, Initial residual = 0.139104, Final residual = 0.000131008, No Iterations 2
DILUPBiCG:  Solving for k, Initial residual = 0.0990031, Final residual = 0.000131425, No Iterations 2
DICPCG:  Solving for G, Initial residual = 0.0632062, Final residual = 0.00197053, No Iterations 13
Before T+T solve
BiCG:  Solving for T+T, Initial residual = 0.00599778, Final residual = 0.000404124, No Iterations 5
Tres = -1.10975
TsRes = -4.68276
ExecutionTime = 0.03 s



Wall heat fluxes [W]
movingWall -0.291411 2.42928e-17 0.315557 0.0241468
left 0.0225507 2.22207e-17 0.614078 0.636628
right -0.545379 -2.78973e-15 -1.20332 -1.7487
bottom -0.251939 0 0.273689 0.0217501
frontAndBack 0 0 0 0
sum -1.06618 -2.74322e-15 7.53949e-08 -1.06618


Wall heat fluxes [W]
topAndBottom 0 0 0 0
left 30.9234 0 0 30.9234
right -6.62939 0 0 -6.62939
frontAndBack 0 0 0 0
sum 24.2941 0 0 24.2941

Time = 6

DILUPBiCG:  Solving for Ux, Initial residual = 0.109318, Final residual = 0.000874177, No Iterations 1
DILUPBiCG:  Solving for Uy, Initial residual = 0.110338, Final residual = 0.00086467, No Iterations 1
DICPCG:  Solving for p_rgh, Initial residual = 0.0882147, Final residual = 0.000713614, No Iterations 11
time step continuity errors : sum local = 0.00190406, global = -1.11107e-16, cumulative = -3.45596e-16
DILUPBiCG:  Solving for epsilon, Initial residual = 0.133345, Final residual = 0.000135517, No Iterations 2
DILUPBiCG:  Solving for k, Initial residual = 0.0820979, Final residual = 9.52383e-06, No Iterations 3
DICPCG:  Solving for G, Initial residual = 0.0654982, Final residual = 0.00194125, No Iterations 13
Before T+T solve
BiCG:  Solving for T+T, Initial residual = 0.00489674, Final residual = 0.000354852, No Iterations 4
Tres = -1.18296
TsRes = -3.67951
ExecutionTime = 0.04 s



Wall heat fluxes [W]
movingWall -0.320542 -2.49441e-15 0.343977 0.0234346
left 0.0274683 5.24626e-16 0.691083 0.718551
right -0.569582 -3.2467e-15 -1.34216 -1.91174
bottom -0.2837 0 0.307099 0.0233993
frontAndBack 0 0 0 0
sum -1.14636 -5.21649e-15 -3.13295e-07 -1.14636


Wall heat fluxes [W]
topAndBottom 0 0 0 0
left 26.4333 0 0 26.4333
right -5.76935 0 0 -5.76935
frontAndBack 0 0 0 0
sum 20.6639 0 0 20.6639

Time = 7

DILUPBiCG:  Solving for Ux, Initial residual = 0.0861364, Final residual = 0.000713519, No Iterations 1
DILUPBiCG:  Solving for Uy, Initial residual = 0.0942173, Final residual = 0.000749385, No Iterations 1
DICPCG:  Solving for p_rgh, Initial residual = 0.0701015, Final residual = 0.000689268, No Iterations 10
time step continuity errors : sum local = 0.00164085, global = -5.57851e-17, cumulative = -4.01381e-16
DILUPBiCG:  Solving for epsilon, Initial residual = 0.11091, Final residual = 0.000119797, No Iterations 2
DILUPBiCG:  Solving for k, Initial residual = 0.0718971, Final residual = 9.59443e-05, No Iterations 2
DICPCG:  Solving for G, Initial residual = 0.0566679, Final residual = 0.00165486, No Iterations 13
Before T+T solve
BiCG:  Solving for T+T, Initial residual = 0.00418488, Final residual = 0.000240732, No Iterations 4
Tres = -1.24656
TsRes = -2.96387
ExecutionTime = 0.04 s



Wall heat fluxes [W]
movingWall -0.348764 5.06108e-15 0.370556 0.021792
left 0.0324576 -1.77766e-16 0.76476 0.797217
right -0.589285 -9.06344e-15 -1.46911 -2.05839
bottom -0.310155 0 0.333793 0.0236381
frontAndBack 0 0 0 0
sum -1.21575 -4.18013e-15 -3.70222e-07 -1.21575


Wall heat fluxes [W]
topAndBottom 0 0 0 0
left 22.7008 0 0 22.7008
right -5.17676 0 0 -5.17676
frontAndBack 0 0 0 0
sum 17.524 0 0 17.524

Time = 8

DILUPBiCG:  Solving for Ux, Initial residual = 0.0662395, Final residual = 0.000581917, No Iterations 1
DILUPBiCG:  Solving for Uy, Initial residual = 0.0832035, Final residual = 0.000659685, No Iterations 1
DICPCG:  Solving for p_rgh, Initial residual = 0.0540199, Final residual = 0.000483194, No Iterations 10
time step continuity errors : sum local = 0.00111901, global = -8.23872e-17, cumulative = -4.83768e-16
DILUPBiCG:  Solving for epsilon, Initial residual = 0.0870086, Final residual = 0.000303541, No Iterations 2
DILUPBiCG:  Solving for k, Initial residual = 0.0664802, Final residual = 0.000111835, No Iterations 2
DICPCG:  Solving for G, Initial residual = 0.0474156, Final residual = 0.00137522, No Iterations 13
Before T+T solve
BiCG:  Solving for T+T, Initial residual = 0.00368815, Final residual = 0.000337181, No Iterations 3
Tres = -1.29798
TsRes = -2.40346
ExecutionTime = 0.04 s



Wall heat fluxes [W]
movingWall -0.373419 -2.58873e-15 0.393896 0.0204777
left 0.0365918 3.38188e-16 0.831837 0.868429
right -0.605302 -1.25111e-15 -1.57912 -2.18442
bottom -0.330481 0 0.353383 0.0229022
frontAndBack 0 0 0 0
sum -1.27261 -3.50165e-15 -4.11376e-07 -1.27261


Wall heat fluxes [W]
topAndBottom 0 0 0 0
left 19.1829 0 0 19.1829
right -4.71878 0 0 -4.71878
frontAndBack 0 0 0 0
sum 14.4641 0 0 14.4641

Time = 9

DILUPBiCG:  Solving for Ux, Initial residual = 0.0546018, Final residual = 0.00048347, No Iterations 1
DILUPBiCG:  Solving for Uy, Initial residual = 0.0727426, Final residual = 0.000600775, No Iterations 1
DICPCG:  Solving for p_rgh, Initial residual = 0.0554438, Final residual = 0.000426749, No Iterations 11
time step continuity errors : sum local = 0.000959905, global = 2.15762e-16, cumulative = -2.68007e-16
DILUPBiCG:  Solving for epsilon, Initial residual = 0.0693698, Final residual = 9.96307e-05, No Iterations 2
DILUPBiCG:  Solving for k, Initial residual = 0.0624357, Final residual = 0.000110827, No Iterations 2
DICPCG:  Solving for G, Initial residual = 0.0399832, Final residual = 0.00113662, No Iterations 13
Before T+T solve
BiCG:  Solving for T+T, Initial residual = 0.00330164, Final residual = 0.000142816, No Iterations 3
Tres = -1.33827
TsRes = -1.96569
ExecutionTime = 0.05 s



Wall heat fluxes [W]
movingWall -0.393951 3.82575e-15 0.413417 0.0194669
left 0.039797 3.12174e-16 0.89242 0.932217
right -0.617301 5.90331e-15 -1.67381 -2.29111
bottom -0.346212 0 0.367974 0.0217617
frontAndBack 0 0 0 0
sum -1.31767 1.00412e-14 -3.79782e-07 -1.31767


Wall heat fluxes [W]
topAndBottom 0 0 0 0
left 16.0948 0 0 16.0948
right -4.36331 0 0 -4.36331
frontAndBack 0 0 0 0
sum 11.7315 0 0 11.7315

Time = 10

DILUPBiCG:  Solving for Ux, Initial residual = 0.0462876, Final residual = 0.00039304, No Iterations 1
DILUPBiCG:  Solving for Uy, Initial residual = 0.064383, Final residual = 0.000538443, No Iterations 1
DICPCG:  Solving for p_rgh, Initial residual = 0.0618442, Final residual = 0.000470643, No Iterations 11
time step continuity errors : sum local = 0.00103966, global = 8.8012e-17, cumulative = -1.79995e-16
DILUPBiCG:  Solving for epsilon, Initial residual = 0.0561343, Final residual = 5.60117e-05, No Iterations 2
DILUPBiCG:  Solving for k, Initial residual = 0.059068, Final residual = 9.55539e-05, No Iterations 2
DICPCG:  Solving for G, Initial residual = 0.033553, Final residual = 0.000943894, No Iterations 13
Before T+T solve
BiCG:  Solving for T+T, Initial residual = 0.0030004, Final residual = 0.000228343, No Iterations 3
Tres = -1.36907
TsRes = -1.60014
ExecutionTime = 0.05 s



Wall heat fluxes [W]
movingWall -0.410297 1.37104e-15 0.428122 0.0178252
left 0.0424827 8.6715e-18 0.946148 0.988631
right -0.626116 2.54888e-15 -1.75229 -2.37841
bottom -0.358392 0 0.378021 0.0196296
frontAndBack 0 0 0 0
sum -1.35232 3.92859e-15 -3.99248e-07 -1.35232


Wall heat fluxes [W]
topAndBottom 0 0 0 0
left 13.6019 0 0 13.6019
right -4.06447 0 0 -4.06447
frontAndBack 0 0 0 0
sum 9.5374 0 0 9.5374

Time = 11

DILUPBiCG:  Solving for Ux, Initial residual = 0.0416109, Final residual = 0.000336744, No Iterations 1
DILUPBiCG:  Solving for Uy, Initial residual = 0.0575603, Final residual = 0.000486528, No Iterations 1
DICPCG:  Solving for p_rgh, Initial residual = 0.066599, Final residual = 0.000469253, No Iterations 11
time step continuity errors : sum local = 0.0010401, global = -3.32527e-16, cumulative = -5.12521e-16
DILUPBiCG:  Solving for epsilon, Initial residual = 0.046009, Final residual = 6.1578e-05, No Iterations 2
DILUPBiCG:  Solving for k, Initial residual = 0.0561209, Final residual = 8.12069e-05, No Iterations 2
DICPCG:  Solving for G, Initial residual = 0.027709, Final residual = 0.000754813, No Iterations 13
Before T+T solve
BiCG:  Solving for T+T, Initial residual = 0.00274388, Final residual = 0.000144681, No Iterations 3
Tres = -1.39117
TsRes = -1.31115
ExecutionTime = 0.05 s



Wall heat fluxes [W]
movingWall -0.422329 -3.97944e-15 0.438758 0.0164293
left 0.0448886 2.60145e-16 0.992489 1.03738
right -0.632293 -1.15486e-14 -1.81626 -2.44855
bottom -0.367736 0 0.385012 0.0172762
frontAndBack 0 0 0 0
sum -1.37747 -1.52679e-14 -3.28199e-07 -1.37747


Wall heat fluxes [W]
topAndBottom 0 0 0 0
left 11.6236 0 0 11.6236
right -3.82824 0 0 -3.82824
frontAndBack 0 0 0 0
sum 7.79535 0 0 7.79535

Time = 12

DILUPBiCG:  Solving for Ux, Initial residual = 0.0388201, Final residual = 0.000318848, No Iterations 1
DILUPBiCG:  Solving for Uy, Initial residual = 0.0534039, Final residual = 0.000443061, No Iterations 1
DICPCG:  Solving for p_rgh, Initial residual = 0.0677517, Final residual = 0.000526133, No Iterations 11
time step continuity errors : sum local = 0.00115952, global = 2.55433e-17, cumulative = -4.86978e-16
DILUPBiCG:  Solving for epsilon, Initial residual = 0.0382636, Final residual = 5.37997e-05, No Iterations 2
DILUPBiCG:  Solving for k, Initial residual = 0.0535149, Final residual = 6.79763e-05, No Iterations 2
DICPCG:  Solving for G, Initial residual = 0.0229645, Final residual = 0.000626412, No Iterations 13
Before T+T solve
BiCG:  Solving for T+T, Initial residual = 0.00253562, Final residual = 0.000192559, No Iterations 3
Tres = -1.40637
TsRes = -1.07091
ExecutionTime = 0.05 s



Wall heat fluxes [W]
movingWall -0.430637 -9.98143e-18 0.44566 0.015023
left 0.0470467 -2.60145e-16 1.03228 1.07932
right -0.636731 2.57969e-15 -1.86815 -2.50488
bottom -0.374863 0 0.390213 0.0153504
frontAndBack 0 0 0 0
sum -1.39518 2.30956e-15 -3.33723e-07 -1.39518


Wall heat fluxes [W]
topAndBottom 0 0 0 0
left 9.99959 0 0 9.99959
right -3.63079 0 0 -3.63079
frontAndBack 0 0 0 0
sum 6.3688 0 0 6.3688

Time = 13

DILUPBiCG:  Solving for Ux, Initial residual = 0.0368299, Final residual = 0.000312796, No Iterations 1
DILUPBiCG:  Solving for Uy, Initial residual = 0.0508542, Final residual = 0.000403889, No Iterations 1
DICPCG:  Solving for p_rgh, Initial residual = 0.0659854, Final residual = 0.000581159, No Iterations 11
time step continuity errors : sum local = 0.00122709, global = -1.07732e-16, cumulative = -5.9471e-16
DILUPBiCG:  Solving for epsilon, Initial residual = 0.0324855, Final residual = 3.98994e-05, No Iterations 2
DILUPBiCG:  Solving for k, Initial residual = 0.0515254, Final residual = 6.29655e-05, No Iterations 2
DICPCG:  Solving for G, Initial residual = 0.019238, Final residual = 0.000512437, No Iterations 13
Before T+T solve
BiCG:  Solving for T+T, Initial residual = 0.00236762, Final residual = 0.000146195, No Iterations 3
Tres = -1.41594
TsRes = -0.879592
ExecutionTime = 0.06 s



Wall heat fluxes [W]
movingWall -0.435976 0 0.449869 0.0138935
left 0.0489764 1.04058e-16 1.06653 1.11551
right -0.639645 -6.47649e-15 -1.91018 -2.54982
bottom -0.380142 0 0.393772 0.0136303
frontAndBack 0 0 0 0
sum -1.40679 -6.37243e-15 -2.83205e-07 -1.40679


Wall heat fluxes [W]
topAndBottom 0 0 0 0
left 8.68014 0 0 8.68014
right -3.47276 0 0 -3.47276
frontAndBack 0 0 0 0
sum 5.20738 0 0 5.20738

Time = 14

DILUPBiCG:  Solving for Ux, Initial residual = 0.0354321, Final residual = 0.000343898, No Iterations 1
DILUPBiCG:  Solving for Uy, Initial residual = 0.0486029, Final residual = 0.000370394, No Iterations 1
DICPCG:  Solving for p_rgh, Initial residual = 0.0632575, Final residual = 0.000536463, No Iterations 11
time step continuity errors : sum local = 0.00112851, global = 9.13207e-17, cumulative = -5.03389e-16
DILUPBiCG:  Solving for epsilon, Initial residual = 0.0282632, Final residual = 3.03605e-05, No Iterations 2
DILUPBiCG:  Solving for k, Initial residual = 0.0503086, Final residual = 6.0325e-05, No Iterations 2
DICPCG:  Solving for G, Initial residual = 0.01623, Final residual = 0.000432606, No Iterations 13
Before T+T solve
BiCG:  Solving for T+T, Initial residual = 0.00222537, Final residual = 0.000175539, No Iterations 3
Tres = -1.42109
TsRes = -0.721454
ExecutionTime = 0.06 s



Wall heat fluxes [W]
movingWall -0.438794 -2.69933e-15 0.45165 0.012856
left 0.0509219 -3.4686e-17 1.09609 1.14701
right -0.641559 6.93729e-15 -1.94384 -2.58539
bottom -0.384123 0 0.396092 0.0119689
frontAndBack 0 0 0 0
sum -1.41355 4.20327e-15 -2.70433e-07 -1.41355


Wall heat fluxes [W]
topAndBottom 0 0 0 0
left 7.62676 0 0 7.62676
right -3.34137 0 0 -3.34137
frontAndBack 0 0 0 0
sum 4.28539 0 0 4.28539

Time = 15

DILUPBiCG:  Solving for Ux, Initial residual = 0.0342222, Final residual = 6.77822e-06, No Iterations 2
DILUPBiCG:  Solving for Uy, Initial residual = 0.0479077, Final residual = 0.000344843, No Iterations 1
DICPCG:  Solving for p_rgh, Initial residual = 0.0622682, Final residual = 0.000490312, No Iterations 11
time step continuity errors : sum local = 0.00103402, global = -1.91112e-16, cumulative = -6.94501e-16
DILUPBiCG:  Solving for epsilon, Initial residual = 0.025974, Final residual = 2.49732e-05, No Iterations 2
DILUPBiCG:  Solving for k, Initial residual = 0.0496178, Final residual = 6.17688e-05, No Iterations 2
DICPCG:  Solving for G, Initial residual = 0.0137502, Final residual = 0.000357466, No Iterations 13
Before T+T solve
BiCG:  Solving for T+T, Initial residual = 0.00212111, Final residual = 0.000150103, No Iterations 3
Tres = -1.42259
TsRes = -0.595088
ExecutionTime = 0.06 s



Wall heat fluxes [W]
movingWall -0.439503 1.28784e-15 0.451436 0.0119333
left 0.0529427 -5.89662e-16 1.12157 1.17451
right -0.642596 -1.04336e-14 -1.97068 -2.61327
bottom -0.387258 0 0.397668 0.0104107
frontAndBack 0 0 0 0
sum -1.41641 -9.73541e-15 -2.16519e-07 -1.41641


Wall heat fluxes [W]
topAndBottom 0 0 0 0
left 6.74916 0 0 6.74916
right -3.23522 0 0 -3.23522
frontAndBack 0 0 0 0
sum 3.51393 0 0 3.51393

Time = 16

DILUPBiCG:  Solving for Ux, Initial residual = 0.0333797, Final residual = 6.40399e-06, No Iterations 2
DILUPBiCG:  Solving for Uy, Initial residual = 0.0470658, Final residual = 0.000335651, No Iterations 1
DICPCG:  Solving for p_rgh, Initial residual = 0.0640528, Final residual = 0.000444376, No Iterations 11
time step continuity errors : sum local = 0.000938043, global = -1.85818e-16, cumulative = -8.80319e-16
DILUPBiCG:  Solving for epsilon, Initial residual = 0.0245571, Final residual = 2.13787e-05, No Iterations 2
DILUPBiCG:  Solving for k, Initial residual = 0.049537, Final residual = 6.47988e-05, No Iterations 2
DICPCG:  Solving for G, Initial residual = 0.0117099, Final residual = 0.000303762, No Iterations 13
Before T+T solve
BiCG:  Solving for T+T, Initial residual = 0.00202615, Final residual = 0.000169156, No Iterations 3
Tres = -1.42091
TsRes = -0.490951
ExecutionTime = 0.06 s



Wall heat fluxes [W]
movingWall -0.438511 -6.45902e-17 0.449612 0.0111008
left 0.0553317 1.7343e-16 1.14359 1.19892
right -0.643043 -1.00252e-14 -1.9921 -2.63515
bottom -0.389579 0 0.398905 0.00932612
frontAndBack 0 0 0 0
sum -1.4158 -9.91636e-15 -1.87068e-07 -1.4158


Wall heat fluxes [W]
topAndBottom 0 0 0 0
left 6.05222 0 0 6.05222
right -3.14716 0 0 -3.14716
frontAndBack 0 0 0 0
sum 2.90506 0 0 2.90506

Time = 17

DILUPBiCG:  Solving for Ux, Initial residual = 0.0325321, Final residual = 5.72925e-06, No Iterations 2
DILUPBiCG:  Solving for Uy, Initial residual = 0.0463744, Final residual = 0.000339353, No Iterations 1
DICPCG:  Solving for p_rgh, Initial residual = 0.066897, Final residual = 0.000550004, No Iterations 10
time step continuity errors : sum local = 0.00116533, global = -5.29396e-18, cumulative = -8.85613e-16
DILUPBiCG:  Solving for epsilon, Initial residual = 0.0236633, Final residual = 2.01764e-05, No Iterations 2
DILUPBiCG:  Solving for k, Initial residual = 0.0497593, Final residual = 6.98473e-05, No Iterations 2
DICPCG:  Solving for G, Initial residual = 0.0100852, Final residual = 0.000255567, No Iterations 13
Before T+T solve
BiCG:  Solving for T+T, Initial residual = 0.00196264, Final residual = 0.000156515, No Iterations 3
Tres = -1.4163
TsRes = -0.40768
ExecutionTime = 0.07 s



Wall heat fluxes [W]
movingWall -0.436047 -1.2905e-15 0.446616 0.0105688
left 0.0581327 1.04058e-16 1.16276 1.2209
right -0.642954 5.23568e-19 -2.00885 -2.6518
bottom -0.39121 0 0.399471 0.00826133
frontAndBack 0 0 0 0
sum -1.41208 -1.18592e-15 -1.36979e-07 -1.41208


Wall heat fluxes [W]
topAndBottom 0 0 0 0
left 5.47312 0 0 5.47312
right -3.07549 0 0 -3.07549
frontAndBack 0 0 0 0
sum 2.39763 0 0 2.39763

Time = 18

DILUPBiCG:  Solving for Ux, Initial residual = 0.0317344, Final residual = 4.67471e-06, No Iterations 2
DILUPBiCG:  Solving for Uy, Initial residual = 0.0455078, Final residual = 0.000356065, No Iterations 1
DICPCG:  Solving for p_rgh, Initial residual = 0.0675149, Final residual = 0.000579964, No Iterations 9
time step continuity errors : sum local = 0.0013111, global = 2.0117e-16, cumulative = -6.84442e-16
DILUPBiCG:  Solving for epsilon, Initial residual = 0.023562, Final residual = 2.00978e-05, No Iterations 2
DILUPBiCG:  Solving for k, Initial residual = 0.0501763, Final residual = 7.47993e-05, No Iterations 2
DICPCG:  Solving for G, Initial residual = 0.00878601, Final residual = 0.000221645, No Iterations 13
Before T+T solve
BiCG:  Solving for T+T, Initial residual = 0.00190293, Final residual = 0.00016882, No Iterations 3
Tres = -1.40883
TsRes = -0.339601
ExecutionTime = 0.07 s



Wall heat fluxes [W]
movingWall -0.432181 6.71163e-15 0.442375 0.0101947
left 0.0616764 1.04058e-16 1.17963 1.2413
right -0.642504 4.37837e-16 -2.02186 -2.66436
bottom -0.392318 0 0.399855 0.00753676
frontAndBack 0 0 0 0
sum -1.40533 7.25353e-15 -1.01715e-07 -1.40533


Wall heat fluxes [W]
topAndBottom 0 0 0 0
left 5.0036 0 0 5.0036
right -3.0161 0 0 -3.0161
frontAndBack 0 0 0 0
sum 1.9875 0 0 1.9875

Time = 19

DILUPBiCG:  Solving for Ux, Initial residual = 0.0307105, Final residual = 3.94003e-06, No Iterations 2
DILUPBiCG:  Solving for Uy, Initial residual = 0.0447089, Final residual = 0.00037333, No Iterations 1
DICPCG:  Solving for p_rgh, Initial residual = 0.0664627, Final residual = 0.000377909, No Iterations 9
time step continuity errors : sum local = 0.000828264, global = 2.48816e-16, cumulative = -4.35626e-16
DILUPBiCG:  Solving for epsilon, Initial residual = 0.0236743, Final residual = 2.15674e-05, No Iterations 2
DILUPBiCG:  Solving for k, Initial residual = 0.050832, Final residual = 8.12322e-05, No Iterations 2
DICPCG:  Solving for G, Initial residual = 0.00778344, Final residual = 0.000190337, No Iterations 13
Before T+T solve
BiCG:  Solving for T+T, Initial residual = 0.00186046, Final residual = 0.000163206, No Iterations 3
Tres = -1.39859
TsRes = -0.285391
ExecutionTime = 0.07 s



Wall heat fluxes [W]
movingWall -0.427156 1.37737e-15 0.437064 0.00990767
left 0.0661485 2.08116e-16 1.19468 1.26083
right -0.641691 1.00726e-14 -2.03161 -2.6733
bottom -0.392968 0 0.399867 0.00689925
frontAndBack 0 0 0 0
sum -1.39567 1.16581e-14 -5.17372e-08 -1.39567


Wall heat fluxes [W]
topAndBottom 0 0 0 0
left 4.62657 0 0 4.62657
right -2.96745 0 0 -2.96745
frontAndBack 0 0 0 0
sum 1.65911 0 0 1.65911

Time = 20

DILUPBiCG:  Solving for Ux, Initial residual = 0.0294595, Final residual = 3.10195e-06, No Iterations 2
DILUPBiCG:  Solving for Uy, Initial residual = 0.0444523, Final residual = 0.000382935, No Iterations 1
DICPCG:  Solving for p_rgh, Initial residual = 0.0667506, Final residual = 0.000481037, No Iterations 10
time step continuity errors : sum local = 0.00108771, global = 2.8058e-16, cumulative = -1.55047e-16
DILUPBiCG:  Solving for epsilon, Initial residual = 0.0243852, Final residual = 2.36575e-05, No Iterations 2
DILUPBiCG:  Solving for k, Initial residual = 0.0514661, Final residual = 8.86109e-05, No Iterations 2
DICPCG:  Solving for G, Initial residual = 0.00696592, Final residual = 0.000169029, No Iterations 13
Before T+T solve
BiCG:  Solving for T+T, Initial residual = 0.00183973, Final residual = 0.000170644, No Iterations 3
Tres = -1.38563
TsRes = -0.241714
ExecutionTime = 0.07 s



Wall heat fluxes [W]
movingWall -0.421035 1.39083e-15 0.430829 0.0097942
left 0.0718708 3.12174e-16 1.20823 1.2801
right -0.640622 1.31544e-14 -2.03872 -2.67934
bottom -0.393402 0 0.399652 0.00625084
frontAndBack 0 0 0 0
sum -1.38319 1.48574e-14 -2.17127e-08 -1.38319


Wall heat fluxes [W]
topAndBottom 0 0 0 0
left 4.3069 0 0 4.3069
right -2.9271 0 0 -2.9271
frontAndBack 0 0 0 0
sum 1.3798 0 0 1.3798

Time = 21

DILUPBiCG:  Solving for Ux, Initial residual = 0.0278672, Final residual = 2.55657e-06, No Iterations 2
DILUPBiCG:  Solving for Uy, Initial residual = 0.0436098, Final residual = 0.000396355, No Iterations 1
DICPCG:  Solving for p_rgh, Initial residual = 0.0665288, Final residual = 0.000345904, No Iterations 11
time step continuity errors : sum local = 0.000780559, global = -3.79841e-17, cumulative = -1.93031e-16
DILUPBiCG:  Solving for epsilon, Initial residual = 0.0249266, Final residual = 2.55398e-05, No Iterations 2
DILUPBiCG:  Solving for k, Initial residual = 0.0524223, Final residual = 9.52053e-05, No Iterations 2
DICPCG:  Solving for G, Initial residual = 0.00631458, Final residual = 0.000626888, No Iterations 12
Before T+T solve
BiCG:  Solving for T+T, Initial residual = 0.00180268, Final residual = 0.000165749, No Iterations 3
Tres = -1.37003
TsRes = -0.207031
ExecutionTime = 0.08 s



Wall heat fluxes [W]
movingWall -0.413925 -1.43202e-15 0.423604 0.00967966
left 0.0789112 -2.42802e-16 1.22058 1.29949
right -0.639276 -4.38371e-16 -2.04369 -2.68297
bottom -0.393671 0 0.399514 0.00584372
frontAndBack 0 0 0 0
sum -1.36796 -2.11319e-15 -1.08649e-07 -1.36796


Wall heat fluxes [W]
topAndBottom 0 0 0 0
left 4.06514 0 0 4.06514
right -2.89373 0 0 -2.89373
frontAndBack 0 0 0 0
sum 1.17141 0 0 1.17141

Time = 22

DILUPBiCG:  Solving for Ux, Initial residual = 0.0262835, Final residual = 2.11561e-06, No Iterations 2
DILUPBiCG:  Solving for Uy, Initial residual = 0.0427016, Final residual = 0.000399677, No Iterations 1
DICPCG:  Solving for p_rgh, Initial residual = 0.0651056, Final residual = 0.000389051, No Iterations 11
time step continuity errors : sum local = 0.000907162, global = -4.10282e-17, cumulative = -2.34059e-16
DILUPBiCG:  Solving for epsilon, Initial residual = 0.0250836, Final residual = 2.71949e-05, No Iterations 2
DILUPBiCG:  Solving for k, Initial residual = 0.0533129, Final residual = 0.000101008, No Iterations 2
DICPCG:  Solving for G, Initial residual = 0.00611565, Final residual = 0.000457541, No Iterations 12
Before T+T solve
BiCG:  Solving for T+T, Initial residual = 0.00179045, Final residual = 0.000167664, No Iterations 3
Tres = -1.3519
TsRes = -0.179448
ExecutionTime = 0.08 s



Wall heat fluxes [W]
movingWall -0.405983 -1.45826e-15 0.415637 0.00965361
left 0.0875082 5.2029e-16 1.23195 1.31946
right -0.637733 -8.8073e-16 -2.0468 -2.68454
bottom -0.393944 0 0.399218 0.00527346
frontAndBack 0 0 0 0
sum -1.35015 -1.8187e-15 2.32186e-07 -1.35015


Wall heat fluxes [W]
topAndBottom 0 0 0 0
left 3.84916 0 0 3.84916
right -2.86579 0 0 -2.86579
frontAndBack 0 0 0 0
sum 0.983369 0 0 0.983369

Time = 23

DILUPBiCG:  Solving for Ux, Initial residual = 0.0245221, Final residual = 1.82984e-06, No Iterations 2
DILUPBiCG:  Solving for Uy, Initial residual = 0.0419747, Final residual = 0.000404418, No Iterations 1
DICPCG:  Solving for p_rgh, Initial residual = 0.0620229, Final residual = 0.000582824, No Iterations 10
time step continuity errors : sum local = 0.00143344, global = -5.70159e-16, cumulative = -8.04218e-16
DILUPBiCG:  Solving for epsilon, Initial residual = 0.0248729, Final residual = 2.91117e-05, No Iterations 2
DILUPBiCG:  Solving for k, Initial residual = 0.0539803, Final residual = 0.000105832, No Iterations 2
DICPCG:  Solving for G, Initial residual = 0.00556746, Final residual = 0.000463357, No Iterations 11
Before T+T solve
BiCG:  Solving for T+T, Initial residual = 0.00175598, Final residual = 0.000162244, No Iterations 3
Tres = -1.33118
TsRes = -0.157546
ExecutionTime = 0.08 s



Wall heat fluxes [W]
movingWall -0.397218 -5.54576e-15 0.406887 0.0096694
left 0.0977162 -1.80367e-15 1.24249 1.34021
right -0.635954 -1.88968e-14 -2.0486 -2.68456
bottom -0.394191 0 0.399225 0.00503389
frontAndBack 0 0 0 0
sum -1.32965 -2.62462e-14 -1.16638e-07 -1.32965


Wall heat fluxes [W]
topAndBottom 0 0 0 0
left 3.70122 0 0 3.70122
right -2.84226 0 0 -2.84226
frontAndBack 0 0 0 0
sum 0.858959 0 0 0.858959

Time = 24

DILUPBiCG:  Solving for Ux, Initial residual = 0.0227296, Final residual = 1.62059e-06, No Iterations 2
DILUPBiCG:  Solving for Uy, Initial residual = 0.040527, Final residual = 0.000395134, No Iterations 1
DICPCG:  Solving for p_rgh, Initial residual = 0.0585338, Final residual = 0.000491408, No Iterations 10
time step continuity errors : sum local = 0.00123542, global = 1.42141e-16, cumulative = -6.62077e-16
DILUPBiCG:  Solving for epsilon, Initial residual = 0.0243248, Final residual = 3.07019e-05, No Iterations 2
DILUPBiCG:  Solving for k, Initial residual = 0.0542965, Final residual = 0.000109371, No Iterations 2
DICPCG:  Solving for G, Initial residual = 0.0053221, Final residual = 0.000422653, No Iterations 11
Before T+T solve
BiCG:  Solving for T+T, Initial residual = 0.00173958, Final residual = 0.000159927, No Iterations 3
Tres = -1.30776
TsRes = -0.14017
ExecutionTime = 0.08 s



Wall heat fluxes [W]
movingWall -0.387767 -2.73147e-15 0.397513 0.00974657
left 0.10966 -7.97778e-16 1.25245 1.36211
right -0.634041 1.05535e-14 -2.04908 -2.68312
bottom -0.394291 0 0.399118 0.00482653
frontAndBack 0 0 0 0
sum -1.30644 7.0243e-15 -8.0047e-07 -1.30644


Wall heat fluxes [W]
topAndBottom 0 0 0 0
left 3.55704 0 0 3.55704
right -2.82214 0 0 -2.82214
frontAndBack 0 0 0 0
sum 0.734903 0 0 0.734903

Time = 25

DILUPBiCG:  Solving for Ux, Initial residual = 0.0209558, Final residual = 1.55684e-06, No Iterations 2
DILUPBiCG:  Solving for Uy, Initial residual = 0.0384287, Final residual = 1.25285e-05, No Iterations 2
DICPCG:  Solving for p_rgh, Initial residual = 0.0546659, Final residual = 0.000414954, No Iterations 10
time step continuity errors : sum local = 0.00103222, global = 6.14099e-17, cumulative = -6.00667e-16
DILUPBiCG:  Solving for epsilon, Initial residual = 0.0235489, Final residual = 3.17922e-05, No Iterations 2
DILUPBiCG:  Solving for k, Initial residual = 0.0541364, Final residual = 0.000112937, No Iterations 2
DICPCG:  Solving for G, Initial residual = 0.00508965, Final residual = 0.000283199, No Iterations 11
Before T+T solve
BiCG:  Solving for T+T, Initial residual = 0.00170114, Final residual = 0.000159661, No Iterations 2
Tres = -1.28104
TsRes = -0.141346
ExecutionTime = 0.09 s



Wall heat fluxes [W]
movingWall -0.377707 -1.43087e-15 0.387595 0.00988799
left 0.123418 -5.2029e-16 1.26201 1.38543
right -0.631995 7.48187e-15 -2.04864 -2.68064
bottom -0.394356 0 0.399034 0.00467746
frontAndBack 0 0 0 0
sum -1.28064 5.53071e-15 -1.21431e-07 -1.28064


Wall heat fluxes [W]
topAndBottom 0 0 0 0
left 2.93918 0 0 2.93918
right -2.81651 0 0 -2.81651
frontAndBack 0 0 0 0
sum 0.122664 0 0 0.122664

Time = 26

DILUPBiCG:  Solving for Ux, Initial residual = 0.0193213, Final residual = 1.60209e-06, No Iterations 2
DILUPBiCG:  Solving for Uy, Initial residual = 0.0365459, Final residual = 1.40001e-05, No Iterations 2
DICPCG:  Solving for p_rgh, Initial residual = 0.0525441, Final residual = 0.000412688, No Iterations 10
time step continuity errors : sum local = 0.00108805, global = -2.40081e-16, cumulative = -8.40748e-16
DILUPBiCG:  Solving for epsilon, Initial residual = 0.0222494, Final residual = 3.15883e-05, No Iterations 2
DILUPBiCG:  Solving for k, Initial residual = 0.0535764, Final residual = 0.000115651, No Iterations 2
DICPCG:  Solving for G, Initial residual = 0.00482182, Final residual = 0.000165941, No Iterations 11
Before T+T solve
BiCG:  Solving for T+T, Initial residual = 0.00164487, Final residual = 0.000162191, No Iterations 2
Tres = -1.25238
TsRes = -0.142427
ExecutionTime = 0.09 s



Wall heat fluxes [W]
movingWall -0.367276 2.77206e-15 0.37707 0.00979409
left 0.138764 -1.04058e-16 1.27126 1.41003
right -0.629064 -1.58431e-14 -2.04726 -2.67633
bottom -0.394325 0 0.398928 0.00460304
frontAndBack 0 0 0 0
sum -1.2519 -1.31751e-14 -1.06424e-07 -1.2519


Wall heat fluxes [W]
topAndBottom 0 0 0 0
left 2.98421 0 0 2.98421
right -2.81089 0 0 -2.81089
frontAndBack 0 0 0 0
sum 0.17332 0 0 0.17332

Time = 27

DILUPBiCG:  Solving for Ux, Initial residual = 0.0180093, Final residual = 1.65973e-06, No Iterations 2
DILUPBiCG:  Solving for Uy, Initial residual = 0.0339844, Final residual = 3.08691e-05, No Iterations 2
DICPCG:  Solving for p_rgh, Initial residual = 0.0494805, Final residual = 0.000351572, No Iterations 11
time step continuity errors : sum local = 0.000957189, global = -4.24046e-16, cumulative = -1.26479e-15
DILUPBiCG:  Solving for epsilon, Initial residual = 0.0205169, Final residual = 3.0936e-05, No Iterations 2
DILUPBiCG:  Solving for k, Initial residual = 0.0526627, Final residual = 0.000115833, No Iterations 2
DICPCG:  Solving for G, Initial residual = 0.00400507, Final residual = 0.000321782, No Iterations 12
Before T+T solve
BiCG:  Solving for T+T, Initial residual = 0.00161769, Final residual = 0.000106998, No Iterations 3
Tres = -1.22234
TsRes = -0.128963
ExecutionTime = 0.09 s



Wall heat fluxes [W]
movingWall -0.356465 -4.12007e-15 0.36526 0.00879543
left 0.15516 -7.63092e-16 1.27905 1.43421
right -0.626119 -1.62823e-14 -2.04181 -2.66793
bottom -0.393457 0 0.397496 0.00403957
frontAndBack 0 0 0 0
sum -1.22088 -2.11655e-14 -1.11384e-07 -1.22088


Wall heat fluxes [W]
topAndBottom 0 0 0 0
left 3.63558 0 0 3.63558
right -2.79312 0 0 -2.79312
frontAndBack 0 0 0 0
sum 0.842465 0 0 0.842465

Time = 28

DILUPBiCG:  Solving for Ux, Initial residual = 0.0162535, Final residual = 1.76761e-06, No Iterations 2
DILUPBiCG:  Solving for Uy, Initial residual = 0.031799, Final residual = 7.55538e-06, No Iterations 2
DICPCG:  Solving for p_rgh, Initial residual = 0.0475006, Final residual = 0.000353099, No Iterations 11
time step continuity errors : sum local = 0.000975689, global = 4.12929e-17, cumulative = -1.2235e-15
DILUPBiCG:  Solving for epsilon, Initial residual = 0.0185215, Final residual = 3.01929e-05, No Iterations 2
DILUPBiCG:  Solving for k, Initial residual = 0.0511484, Final residual = 0.000114171, No Iterations 2
DICPCG:  Solving for G, Initial residual = 0.00377463, Final residual = 0.000304203, No Iterations 11
Before T+T solve
BiCG:  Solving for T+T, Initial residual = 0.00157942, Final residual = 0.000141726, No Iterations 2
Tres = -1.19007
TsRes = -0.131866
ExecutionTime = 0.09 s



Wall heat fluxes [W]
movingWall -0.34583 -2.78134e-15 0.354798 0.00896774
left 0.172881 -5.89662e-16 1.28618 1.45906
right -0.624222 6.60846e-15 -2.03751 -2.66173
bottom -0.39256 0 0.396531 0.00397171
frontAndBack 0 0 0 0
sum -1.18973 3.23745e-15 -7.19446e-07 -1.18973


Wall heat fluxes [W]
topAndBottom 0 0 0 0
left 2.88072 0 0 2.88072
right -2.7882 0 0 -2.7882
frontAndBack 0 0 0 0
sum 0.0925203 0 0 0.0925203

Time = 29

DILUPBiCG:  Solving for Ux, Initial residual = 0.0145487, Final residual = 2.45093e-06, No Iterations 2
DILUPBiCG:  Solving for Uy, Initial residual = 0.0287365, Final residual = 3.78897e-06, No Iterations 2
DICPCG:  Solving for p_rgh, Initial residual = 0.0440245, Final residual = 0.000294326, No Iterations 11
time step continuity errors : sum local = 0.000837096, global = -1.7073e-16, cumulative = -1.39423e-15
DILUPBiCG:  Solving for epsilon, Initial residual = 0.0164833, Final residual = 3.01332e-05, No Iterations 2
DILUPBiCG:  Solving for k, Initial residual = 0.0489874, Final residual = 0.000110098, No Iterations 2
DICPCG:  Solving for G, Initial residual = 0.00457805, Final residual = 0.000363451, No Iterations 10
Before T+T solve
BiCG:  Solving for T+T, Initial residual = 0.00152793, Final residual = 0.000150642, No Iterations 2
Tres = -1.15921
TsRes = -0.132839
ExecutionTime = 0.1 s



Wall heat fluxes [W]
movingWall -0.336332 -4.25508e-15 0.345537 0.00920458
left 0.191193 -2.49739e-15 1.29484 1.48603
right -0.621219 -1.76426e-15 -2.03763 -2.65885
bottom -0.392426 0 0.397251 0.00482497
frontAndBack 0 0 0 0
sum -1.15878 -8.51674e-15 -6.56919e-07 -1.15878


Wall heat fluxes [W]
topAndBottom 0 0 0 0
left 2.93042 0 0 2.93042
right -2.78323 0 0 -2.78323
frontAndBack 0 0 0 0
sum 0.147189 0 0 0.147189

Time = 30

DILUPBiCG:  Solving for Ux, Initial residual = 0.0135998, Final residual = 4.2091e-06, No Iterations 2
DILUPBiCG:  Solving for Uy, Initial residual = 0.0250358, Final residual = 4.16182e-05, No Iterations 2
DICPCG:  Solving for p_rgh, Initial residual = 0.0398807, Final residual = 0.000200743, No Iterations 11
time step continuity errors : sum local = 0.000568307, global = 4.63221e-17, cumulative = -1.34791e-15
DILUPBiCG:  Solving for epsilon, Initial residual = 0.0149573, Final residual = 3.35147e-05, No Iterations 2
DILUPBiCG:  Solving for k, Initial residual = 0.0463166, Final residual = 0.000104341, No Iterations 2
DICPCG:  Solving for G, Initial residual = 0.00399449, Final residual = 0.000318863, No Iterations 12
Before T+T solve
BiCG:  Solving for T+T, Initial residual = 0.00149959, Final residual = 9.13617e-05, No Iterations 3
Tres = -1.12818
TsRes = -0.120695
ExecutionTime = 0.1 s



Wall heat fluxes [W]
movingWall -0.326849 4.13811e-15 0.334636 0.0077867
left 0.209485 -2.56676e-15 1.30235 1.51184
right -0.618243 -4.39487e-16 -2.03209 -2.65033
bottom -0.391196 0 0.395101 0.00390538
frontAndBack 0 0 0 0
sum -1.1268 1.13186e-15 3.32676e-07 -1.1268


Wall heat fluxes [W]
topAndBottom 0 0 0 0
left 3.55801 0 0 3.55801
right -2.76668 0 0 -2.76668
frontAndBack 0 0 0 0
sum 0.791321 0 0 0.791321

Time = 31

DILUPBiCG:  Solving for Ux, Initial residual = 0.0121421, Final residual = 5.5673e-05, No Iterations 2
DILUPBiCG:  Solving for Uy, Initial residual = 0.0228732, Final residual = 8.87788e-06, No Iterations 2
DICPCG:  Solving for p_rgh, Initial residual = 0.0366523, Final residual = 0.000168289, No Iterations 11
time step continuity errors : sum local = 0.000470074, global = 4.9075e-16, cumulative = -8.57159e-16
DILUPBiCG:  Solving for epsilon, Initial residual = 0.0137693, Final residual = 4.9091e-05, No Iterations 2
DILUPBiCG:  Solving for k, Initial residual = 0.0438292, Final residual = 9.92152e-05, No Iterations 2
DICPCG:  Solving for G, Initial residual = 0.00344528, Final residual = 0.000241141, No Iterations 12
Before T+T solve
BiCG:  Solving for T+T, Initial residual = 0.00146028, Final residual = 0.000134121, No Iterations 2
Tres = -1.09623
TsRes = -0.123461
ExecutionTime = 0.1 s



Wall heat fluxes [W]
movingWall -0.317871 4.24945e-15 0.325544 0.00767266
left 0.228013 6.24348e-16 1.30883 1.53684
right -0.616297 1.49856e-14 -2.02812 -2.64442
bottom -0.389765 0 0.393755 0.00399052
frontAndBack 0 0 0 0
sum -1.09592 1.98594e-14 3.38188e-07 -1.09592


Wall heat fluxes [W]
topAndBottom 0 0 0 0
left 2.84549 0 0 2.84549
right -2.76213 0 0 -2.76213
frontAndBack 0 0 0 0
sum 0.0833542 0 0 0.0833542

Time = 32

DILUPBiCG:  Solving for Ux, Initial residual = 0.0109788, Final residual = 1.48923e-05, No Iterations 2
DILUPBiCG:  Solving for Uy, Initial residual = 0.0202421, Final residual = 0.00019588, No Iterations 1
DICPCG:  Solving for p_rgh, Initial residual = 0.032587, Final residual = 0.000292795, No Iterations 6
time step continuity errors : sum local = 0.00112316, global = -9.05266e-17, cumulative = -9.47686e-16
DILUPBiCG:  Solving for epsilon, Initial residual = 0.0130795, Final residual = 5.305e-07, No Iterations 3
DILUPBiCG:  Solving for k, Initial residual = 0.0414755, Final residual = 0.000156324, No Iterations 2
DICPCG:  Solving for G, Initial residual = 0.00411199, Final residual = 0.00014271, No Iterations 11
Before T+T solve
BiCG:  Solving for T+T, Initial residual = 0.00141924, Final residual = 7.86525e-05, No Iterations 3
Tres = -1.0681
TsRes = -0.109742
ExecutionTime = 0.1 s



Wall heat fluxes [W]
movingWall -0.310606 -2.17398e-15 0.31811 0.00750351
left 0.245898 -1.7343e-15 1.31672 1.56261
right -0.613259 -1.32334e-15 -2.0285 -2.64176
bottom -0.388899 0 0.39367 0.00477111
frontAndBack 0 0 0 0
sum -1.06687 -5.23162e-15 -1.62307e-07 -1.06687


Wall heat fluxes [W]
topAndBottom 0 0 0 0
left 3.45772 0 0 3.45772
right -2.74634 0 0 -2.74634
frontAndBack 0 0 0 0
sum 0.711377 0 0 0.711377

Time = 33

DILUPBiCG:  Solving for Ux, Initial residual = 0.010392, Final residual = 2.93783e-06, No Iterations 2
DILUPBiCG:  Solving for Uy, Initial residual = 0.017244, Final residual = 4.99042e-06, No Iterations 2
DICPCG:  Solving for p_rgh, Initial residual = 0.0289702, Final residual = 0.000198462, No Iterations 11
time step continuity errors : sum local = 0.000567929, global = 1.82112e-16, cumulative = -7.65574e-16
DILUPBiCG:  Solving for epsilon, Initial residual = 0.0126314, Final residual = 2.14539e-05, No Iterations 2
DILUPBiCG:  Solving for k, Initial residual = 0.0393162, Final residual = 6.24409e-05, No Iterations 2
DICPCG:  Solving for G, Initial residual = 0.00341431, Final residual = 0.000273233, No Iterations 11
Before T+T solve
BiCG:  Solving for T+T, Initial residual = 0.00138567, Final residual = 0.000124252, No Iterations 2
Tres = -1.03779
TsRes = -0.113259
ExecutionTime = 0.11 s



Wall heat fluxes [W]
movingWall -0.30304 -1.40866e-15 0.309699 0.0066592
left 0.263298 3.19111e-15 1.32331 1.5866
right -0.61123 5.28963e-15 -2.02372 -2.63495
bottom -0.386527 0 0.390715 0.00418802
frontAndBack 0 0 0 0
sum -1.0375 7.07208e-15 -2.48286e-07 -1.0375


Wall heat fluxes [W]
topAndBottom 0 0 0 0
left 2.82172 0 0 2.82172
right -2.74208 0 0 -2.74208
frontAndBack 0 0 0 0
sum 0.0796411 0 0 0.0796411

Time = 34

DILUPBiCG:  Solving for Ux, Initial residual = 0.00959275, Final residual = 3.0457e-06, No Iterations 2
DILUPBiCG:  Solving for Uy, Initial residual = 0.0159645, Final residual = 0.000141918, No Iterations 1
DICPCG:  Solving for p_rgh, Initial residual = 0.0255528, Final residual = 0.000197511, No Iterations 6
time step continuity errors : sum local = 0.000552225, global = 3.7693e-16, cumulative = -3.88644e-16
DILUPBiCG:  Solving for epsilon, Initial residual = 0.0122611, Final residual = 1.23955e-05, No Iterations 2
DILUPBiCG:  Solving for k, Initial residual = 0.0375459, Final residual = 6.29136e-05, No Iterations 2
DICPCG:  Solving for G, Initial residual = 0.00385504, Final residual = 0.000131028, No Iterations 11
Before T+T solve
BiCG:  Solving for T+T, Initial residual = 0.001357, Final residual = 0.000133246, No Iterations 2
Tres = -1.01044
TsRes = -0.11426
ExecutionTime = 0.11 s



Wall heat fluxes [W]
movingWall -0.296893 3.48609e-15 0.303682 0.00678936
left 0.279753 -3.05237e-15 1.33059 1.61034
right -0.608293 1.80817e-14 -2.0239 -2.63219
bottom -0.384642 0 0.389625 0.00498339
frontAndBack 0 0 0 0
sum -1.01007 1.85154e-14 -1.26847e-07 -1.01007


Wall heat fluxes [W]
topAndBottom 0 0 0 0
left 2.86402 0 0 2.86402
right -2.73783 0 0 -2.73783
frontAndBack 0 0 0 0
sum 0.126187 0 0 0.126187

Time = 35

DILUPBiCG:  Solving for Ux, Initial residual = 0.00935733, Final residual = 2.10078e-06, No Iterations 2
DILUPBiCG:  Solving for Uy, Initial residual = 0.0138168, Final residual = 0.000127455, No Iterations 1
DICPCG:  Solving for p_rgh, Initial residual = 0.0223012, Final residual = 0.000212665, No Iterations 6
time step continuity errors : sum local = 0.000771665, global = 2.0541e-16, cumulative = -1.83234e-16
DILUPBiCG:  Solving for epsilon, Initial residual = 0.0118257, Final residual = 9.00087e-06, No Iterations 2
DILUPBiCG:  Solving for k, Initial residual = 0.0360645, Final residual = 5.95311e-05, No Iterations 2
DICPCG:  Solving for G, Initial residual = 0.00326478, Final residual = 0.000193596, No Iterations 11
Before T+T solve
BiCG:  Solving for T+T, Initial residual = 0.0013401, Final residual = 8.32446e-05, No Iterations 3
Tres = -0.984115
TsRes = -0.103916
ExecutionTime = 0.11 s



Wall heat fluxes [W]
movingWall -0.290852 3.51083e-15 0.296418 0.0055663
left 0.294925 -5.54976e-16 1.3369 1.63182
right -0.60539 7.93946e-15 -2.01928 -2.62467
bottom -0.381607 0 0.385966 0.00435913
frontAndBack 0 0 0 0
sum -0.982923 1.08953e-14 -1.56219e-07 -0.982924


Wall heat fluxes [W]
topAndBottom 0 0 0 0
left 3.41191 0 0 3.41191
right -2.72366 0 0 -2.72366
frontAndBack 0 0 0 0
sum 0.688242 0 0 0.688242

Time = 36

DILUPBiCG:  Solving for Ux, Initial residual = 0.00853198, Final residual = 8.34885e-05, No Iterations 1
DILUPBiCG:  Solving for Uy, Initial residual = 0.0133995, Final residual = 2.19425e-05, No Iterations 2
DICPCG:  Solving for p_rgh, Initial residual = 0.0188188, Final residual = 0.000172929, No Iterations 11
time step continuity errors : sum local = 0.000498703, global = 1.08526e-17, cumulative = -1.72382e-16
DILUPBiCG:  Solving for epsilon, Initial residual = 0.0112917, Final residual = 7.81605e-06, No Iterations 2
DILUPBiCG:  Solving for k, Initial residual = 0.0346363, Final residual = 6.0786e-05, No Iterations 2
DICPCG:  Solving for G, Initial residual = 0.00290601, Final residual = 0.000149382, No Iterations 11
Before T+T solve
BiCG:  Solving for T+T, Initial residual = 0.00130836, Final residual = 0.000122628, No Iterations 2
Tres = -0.95823
TsRes = -0.106452
ExecutionTime = 0.11 s



Wall heat fluxes [W]
movingWall -0.285324 -6.20306e-16 0.290794 0.00546983
left 0.30902 -8.32464e-16 1.3424 1.65142
right -0.603386 3.09033e-15 -2.01594 -2.61933
bottom -0.378263 0 0.382747 0.00448385
frontAndBack 0 0 0 0
sum -0.957953 1.63756e-15 -9.85507e-08 -0.957953


Wall heat fluxes [W]
topAndBottom 0 0 0 0
left 2.79758 0 0 2.79758
right -2.71968 0 0 -2.71968
frontAndBack 0 0 0 0
sum 0.0779082 0 0 0.0779082

Time = 37

DILUPBiCG:  Solving for Ux, Initial residual = 0.00776723, Final residual = 7.0599e-05, No Iterations 1
DILUPBiCG:  Solving for Uy, Initial residual = 0.012543, Final residual = 4.49923e-06, No Iterations 2
DICPCG:  Solving for p_rgh, Initial residual = 0.0160572, Final residual = 0.000159223, No Iterations 11
time step continuity errors : sum local = 0.000458991, global = -1.0932e-16, cumulative = -2.81702e-16
DILUPBiCG:  Solving for epsilon, Initial residual = 0.0107954, Final residual = 7.57706e-06, No Iterations 2
DILUPBiCG:  Solving for k, Initial residual = 0.0333875, Final residual = 6.79395e-05, No Iterations 2
DICPCG:  Solving for G, Initial residual = 0.00351839, Final residual = 0.000332089, No Iterations 11
Before T+T solve
BiCG:  Solving for T+T, Initial residual = 0.00128586, Final residual = 6.90494e-05, No Iterations 3
Tres = -0.936219
TsRes = -0.0947865
ExecutionTime = 0.12 s



Wall heat fluxes [W]
movingWall -0.281136 -1.39112e-15 0.286645 0.00550874
left 0.32173 7.63092e-16 1.34917 1.6709
right -0.600394 -6.17893e-15 -2.01637 -2.61676
bottom -0.375329 0 0.380557 0.00522796
frontAndBack 0 0 0 0
sum -0.935129 -6.80695e-15 -2.48982e-07 -0.935129


Wall heat fluxes [W]
topAndBottom 0 0 0 0
left 3.3357 0 0 3.3357
right -2.70594 0 0 -2.70594
frontAndBack 0 0 0 0
sum 0.629761 0 0 0.629761

Time = 38

DILUPBiCG:  Solving for Ux, Initial residual = 0.00785671, Final residual = 7.1773e-05, No Iterations 1
DILUPBiCG:  Solving for Uy, Initial residual = 0.0115886, Final residual = 7.42067e-06, No Iterations 2
DICPCG:  Solving for p_rgh, Initial residual = 0.0140459, Final residual = 0.000139046, No Iterations 11
time step continuity errors : sum local = 0.00040388, global = -5.84982e-17, cumulative = -3.402e-16
DILUPBiCG:  Solving for epsilon, Initial residual = 0.0102863, Final residual = 7.25636e-06, No Iterations 2
DILUPBiCG:  Solving for k, Initial residual = 0.0321432, Final residual = 7.78079e-05, No Iterations 2
DICPCG:  Solving for G, Initial residual = 0.00313786, Final residual = 0.000154325, No Iterations 11
Before T+T solve
BiCG:  Solving for T+T, Initial residual = 0.00125644, Final residual = 0.00011916, No Iterations 2
Tres = -0.913214
TsRes = -0.0980275
ExecutionTime = 0.12 s



Wall heat fluxes [W]
movingWall -0.276621 4.9151e-15 0.281404 0.00478265
left 0.333198 -2.08116e-16 1.35494 1.68814
right -0.598259 -7.94893e-15 -2.01222 -2.61048
bottom -0.371256 0 0.375876 0.00462003
frontAndBack 0 0 0 0
sum -0.912939 -3.24195e-15 -1.85749e-08 -0.912939


Wall heat fluxes [W]
topAndBottom 0 0 0 0
left 2.78723 0 0 2.78723
right -2.70202 0 0 -2.70202
frontAndBack 0 0 0 0
sum 0.0852158 0 0 0.0852158

Time = 39

DILUPBiCG:  Solving for Ux, Initial residual = 0.00745588, Final residual = 6.52376e-05, No Iterations 1
DILUPBiCG:  Solving for Uy, Initial residual = 0.011931, Final residual = 2.66901e-06, No Iterations 2
DICPCG:  Solving for p_rgh, Initial residual = 0.0131239, Final residual = 0.000107647, No Iterations 11
time step continuity errors : sum local = 0.000316574, global = 1.40818e-16, cumulative = -1.99382e-16
DILUPBiCG:  Solving for epsilon, Initial residual = 0.00985607, Final residual = 6.83524e-06, No Iterations 2
DILUPBiCG:  Solving for k, Initial residual = 0.0309185, Final residual = 8.68868e-05, No Iterations 2
DICPCG:  Solving for G, Initial residual = 0.00330615, Final residual = 0.00026387, No Iterations 12
Before T+T solve
BiCG:  Solving for T+T, Initial residual = 0.00124389, Final residual = 6.64269e-05, No Iterations 3
Tres = -0.893741
TsRes = -0.0878073
ExecutionTime = 0.12 s



Wall heat fluxes [W]
movingWall -0.273261 -2.41255e-17 0.278197 0.00493538
left 0.343435 -1.7343e-15 1.36128 1.70472
right -0.595171 1.05959e-14 -2.01247 -2.60764
bottom -0.36772 0 0.372994 0.00527394
frontAndBack 0 0 0 0
sum -0.892717 8.8375e-15 1.76155e-07 -0.892717


Wall heat fluxes [W]
topAndBottom 0 0 0 0
left 3.28225 0 0 3.28225
right -2.68928 0 0 -2.68928
frontAndBack 0 0 0 0
sum 0.592967 0 0 0.592967

Time = 40

DILUPBiCG:  Solving for Ux, Initial residual = 0.00778076, Final residual = 6.78687e-05, No Iterations 1
DILUPBiCG:  Solving for Uy, Initial residual = 0.0111659, Final residual = 4.16869e-06, No Iterations 2
DICPCG:  Solving for p_rgh, Initial residual = 0.0131394, Final residual = 0.000115309, No Iterations 10
time step continuity errors : sum local = 0.000338605, global = 1.61201e-16, cumulative = -3.8181e-17
DILUPBiCG:  Solving for epsilon, Initial residual = 0.0093854, Final residual = 6.29521e-06, No Iterations 2
DILUPBiCG:  Solving for k, Initial residual = 0.0296445, Final residual = 8.93127e-05, No Iterations 2
DICPCG:  Solving for G, Initial residual = 0.00295335, Final residual = 0.000134878, No Iterations 11
Before T+T solve
BiCG:  Solving for T+T, Initial residual = 0.00121608, Final residual = 0.000118876, No Iterations 2
Tres = -0.873423
TsRes = -0.091193
ExecutionTime = 0.13 s



Wall heat fluxes [W]
movingWall -0.269561 3.54012e-15 0.273837 0.00427618
left 0.352509 -3.26048e-15 1.36678 1.71929
right -0.592852 1.06037e-14 -2.00858 -2.60143
bottom -0.363247 0 0.367956 0.00470914
frontAndBack 0 0 0 0
sum -0.87315 1.08833e-14 -1.3833e-08 -0.87315


Wall heat fluxes [W]
topAndBottom 0 0 0 0
left 2.77532 0 0 2.77532
right -2.68556 0 0 -2.68556
frontAndBack 0 0 0 0
sum 0.0897617 0 0 0.0897617

Time = 41

DILUPBiCG:  Solving for Ux, Initial residual = 0.0074472, Final residual = 6.64004e-05, No Iterations 1
DILUPBiCG:  Solving for Uy, Initial residual = 0.0115035, Final residual = 6.72106e-06, No Iterations 2
DICPCG:  Solving for p_rgh, Initial residual = 0.0136693, Final residual = 6.93652e-05, No Iterations 10
time step continuity errors : sum local = 0.000204632, global = 9.71441e-17, cumulative = 5.89631e-17
DILUPBiCG:  Solving for epsilon, Initial residual = 0.00896334, Final residual = 5.86896e-06, No Iterations 2
DILUPBiCG:  Solving for k, Initial residual = 0.0284372, Final residual = 8.758e-05, No Iterations 2
DICPCG:  Solving for G, Initial residual = 0.00314238, Final residual = 0.00025258, No Iterations 12
Before T+T solve
BiCG:  Solving for T+T, Initial residual = 0.00121025, Final residual = 6.26987e-05, No Iterations 3
Tres = -0.856116
TsRes = -0.0824424
ExecutionTime = 0.13 s



Wall heat fluxes [W]
movingWall -0.266832 6.8997e-16 0.271333 0.00450085
left 0.360628 6.9372e-17 1.37282 1.73345
right -0.589582 2.21283e-15 -2.00874 -2.59832
bottom -0.359359 0 0.364589 0.00522997
frontAndBack 0 0 0 0
sum -0.855145 2.97217e-15 1.77901e-07 -0.855144


Wall heat fluxes [W]
topAndBottom 0 0 0 0
left 3.23689 0 0 3.23689
right -2.6738 0 0 -2.6738
frontAndBack 0 0 0 0
sum 0.563091 0 0 0.563091

Time = 42

DILUPBiCG:  Solving for Ux, Initial residual = 0.007768, Final residual = 6.75942e-05, No Iterations 1
DILUPBiCG:  Solving for Uy, Initial residual = 0.0108595, Final residual = 0.000102646, No Iterations 1
DICPCG:  Solving for p_rgh, Initial residual = 0.0148477, Final residual = 6.85002e-05, No Iterations 10
time step continuity errors : sum local = 0.000203175, global = 1.75495e-16, cumulative = 2.34458e-16
DILUPBiCG:  Solving for epsilon, Initial residual = 0.00860301, Final residual = 5.45352e-06, No Iterations 2
DILUPBiCG:  Solving for k, Initial residual = 0.0272678, Final residual = 8.14369e-05, No Iterations 2
DICPCG:  Solving for G, Initial residual = 0.00282772, Final residual = 0.000101592, No Iterations 11
Before T+T solve
BiCG:  Solving for T+T, Initial residual = 0.00118248, Final residual = 4.86306e-05, No Iterations 3
Tres = -0.838437
TsRes = -0.0761949
ExecutionTime = 0.13 s



Wall heat fluxes [W]
movingWall -0.263767 -1.46219e-15 0.267596 0.0038284
left 0.367867 3.05237e-15 1.37807 1.74594
right -0.586908 5.30611e-15 -2.00507 -2.59198
bottom -0.354821 0 0.359397 0.00457611
frontAndBack 0 0 0 0
sum -0.837629 6.89628e-15 -2.21024e-08 -0.83763


Wall heat fluxes [W]
topAndBottom 0 0 0 0
left 3.12288 0 0 3.12288
right -2.66232 0 0 -2.66232
frontAndBack 0 0 0 0
sum 0.460564 0 0 0.460564

Time = 43

DILUPBiCG:  Solving for Ux, Initial residual = 0.00735715, Final residual = 6.85315e-05, No Iterations 1
DILUPBiCG:  Solving for Uy, Initial residual = 0.0113919, Final residual = 0.000105799, No Iterations 1
DICPCG:  Solving for p_rgh, Initial residual = 0.0159432, Final residual = 0.000148708, No Iterations 5
time step continuity errors : sum local = 0.000611206, global = -1.48495e-16, cumulative = 8.59623e-17
DILUPBiCG:  Solving for epsilon, Initial residual = 0.00830365, Final residual = 5.09575e-06, No Iterations 2
DILUPBiCG:  Solving for k, Initial residual = 0.0261629, Final residual = 7.47802e-05, No Iterations 2
DICPCG:  Solving for G, Initial residual = 0.00293579, Final residual = 0.000248009, No Iterations 12
Before T+T solve
BiCG:  Solving for T+T, Initial residual = 0.00115321, Final residual = 0.000112711, No Iterations 2
Tres = -0.82221
TsRes = -0.0783736
ExecutionTime = 0.13 s



Wall heat fluxes [W]
movingWall -0.261432 -7.35291e-16 0.265615 0.00418345
left 0.374297 -6.9372e-17 1.38373 1.75803
right -0.584055 -7.07289e-15 -2.00528 -2.58933
bottom -0.350744 0 0.355926 0.00518224
frontAndBack 0 0 0 0
sum -0.821934 -7.87755e-15 1.47688e-07 -0.821934


Wall heat fluxes [W]
topAndBottom 0 0 0 0
left 2.76435 0 0 2.76435
right -2.65895 0 0 -2.65895
frontAndBack 0 0 0 0
sum 0.105404 0 0 0.105404

Time = 44

DILUPBiCG:  Solving for Ux, Initial residual = 0.00741106, Final residual = 6.6639e-05, No Iterations 1
DILUPBiCG:  Solving for Uy, Initial residual = 0.0108139, Final residual = 9.99557e-05, No Iterations 1
DICPCG:  Solving for p_rgh, Initial residual = 0.0163247, Final residual = 0.000105986, No Iterations 10
time step continuity errors : sum local = 0.000315198, global = -1.09055e-16, cumulative = -2.30932e-17
DILUPBiCG:  Solving for epsilon, Initial residual = 0.00798802, Final residual = 4.77971e-06, No Iterations 2
DILUPBiCG:  Solving for k, Initial residual = 0.0250489, Final residual = 6.837e-05, No Iterations 2
DICPCG:  Solving for G, Initial residual = 0.00315087, Final residual = 0.000295333, No Iterations 11
Before T+T solve
BiCG:  Solving for T+T, Initial residual = 0.00116225, Final residual = 6.77312e-05, No Iterations 3
Tres = -0.806952
TsRes = -0.0728229
ExecutionTime = 0.14 s



Wall heat fluxes [W]
movingWall -0.25921 1.41749e-15 0.263151 0.00394169
left 0.380232 -5.54976e-16 1.38962 1.76985
right -0.580444 -7.95701e-15 -2.00424 -2.58468
bottom -0.34666 0 0.351468 0.00480767
frontAndBack 0 0 0 0
sum -0.806081 -7.09449e-15 1.04848e-07 -0.806081


Wall heat fluxes [W]
topAndBottom 0 0 0 0
left 3.15534 0 0 3.15534
right -2.64896 0 0 -2.64896
frontAndBack 0 0 0 0
sum 0.506371 0 0 0.506371

Time = 45

DILUPBiCG:  Solving for Ux, Initial residual = 0.00760396, Final residual = 6.64272e-05, No Iterations 1
DILUPBiCG:  Solving for Uy, Initial residual = 0.010816, Final residual = 0.000101529, No Iterations 1
DICPCG:  Solving for p_rgh, Initial residual = 0.0175388, Final residual = 0.000135318, No Iterations 5
time step continuity errors : sum local = 0.000500772, global = 1.7073e-16, cumulative = 1.47637e-16
DILUPBiCG:  Solving for epsilon, Initial residual = 0.00764817, Final residual = 4.5006e-06, No Iterations 2
DILUPBiCG:  Solving for k, Initial residual = 0.0239047, Final residual = 6.17108e-05, No Iterations 2
DICPCG:  Solving for G, Initial residual = 0.00260571, Final residual = 7.16546e-05, No Iterations 11
Before T+T solve
BiCG:  Solving for T+T, Initial residual = 0.00114106, Final residual = 5.55079e-05, No Iterations 3
Tres = -0.791346
TsRes = -0.0686305
ExecutionTime = 0.14 s



Wall heat fluxes [W]
movingWall -0.256626 -1.41479e-15 0.260045 0.0034195
left 0.385654 5.82725e-15 1.3944 1.78005
right -0.577313 -8.82358e-16 -2.00108 -2.57839
bottom -0.342333 0 0.346639 0.00430647
frontAndBack 0 0 0 0
sum -0.790618 3.5301e-15 -8.57691e-08 -0.790618


Wall heat fluxes [W]
topAndBottom 0 0 0 0
left 3.05446 0 0 3.05446
right -2.63929 0 0 -2.63929
frontAndBack 0 0 0 0
sum 0.415174 0 0 0.415174

Time = 46

DILUPBiCG:  Solving for Ux, Initial residual = 0.00719495, Final residual = 6.34004e-05, No Iterations 1
DILUPBiCG:  Solving for Uy, Initial residual = 0.0111253, Final residual = 0.000102509, No Iterations 1
DICPCG:  Solving for p_rgh, Initial residual = 0.0181979, Final residual = 0.000145245, No Iterations 5
time step continuity errors : sum local = 0.000501683, global = 1.9667e-16, cumulative = 3.44307e-16
DILUPBiCG:  Solving for epsilon, Initial residual = 0.00731158, Final residual = 4.23787e-06, No Iterations 2
DILUPBiCG:  Solving for k, Initial residual = 0.022818, Final residual = 5.66548e-05, No Iterations 2
DICPCG:  Solving for G, Initial residual = 0.00266994, Final residual = 0.000225885, No Iterations 12
Before T+T solve
BiCG:  Solving for T+T, Initial residual = 0.00111384, Final residual = 0.000109412, No Iterations 2
Tres = -0.776751
TsRes = -0.0714201
ExecutionTime = 0.14 s



Wall heat fluxes [W]
movingWall -0.254639 4.25071e-15 0.258389 0.00375041
left 0.390735 -3.39923e-15 1.39956 1.7903
right -0.57403 9.72768e-15 -2.00117 -2.5752
bottom -0.338562 0 0.343216 0.00465423
frontAndBack 0 0 0 0
sum -0.776495 1.05792e-14 1.43768e-07 -0.776495


Wall heat fluxes [W]
topAndBottom 0 0 0 0
left 2.7346 0 0 2.7346
right -2.63626 0 0 -2.63626
frontAndBack 0 0 0 0
sum 0.0983387 0 0 0.0983387

Time = 47

DILUPBiCG:  Solving for Ux, Initial residual = 0.00719616, Final residual = 6.26475e-05, No Iterations 1
DILUPBiCG:  Solving for Uy, Initial residual = 0.0105438, Final residual = 9.96419e-05, No Iterations 1
DICPCG:  Solving for p_rgh, Initial residual = 0.0181945, Final residual = 0.000144749, No Iterations 5
time step continuity errors : sum local = 0.000437616, global = 9.23795e-17, cumulative = 4.36687e-16
DILUPBiCG:  Solving for epsilon, Initial residual = 0.00697286, Final residual = 3.99237e-06, No Iterations 2
DILUPBiCG:  Solving for k, Initial residual = 0.0217315, Final residual = 5.20564e-05, No Iterations 2
DICPCG:  Solving for G, Initial residual = 0.00283434, Final residual = 0.00027136, No Iterations 11
Before T+T solve
BiCG:  Solving for T+T, Initial residual = 0.00112433, Final residual = 7.15077e-05, No Iterations 3
Tres = -0.762806
TsRes = -0.0672146
ExecutionTime = 0.14 s



Wall heat fluxes [W]
movingWall -0.25262 2.80771e-15 0.256188 0.00356822
left 0.395603 -3.4686e-16 1.40485 1.80045
right -0.570078 8.83073e-16 -2.00024 -2.57032
bottom -0.33491 0 0.33921 0.00430093
frontAndBack 0 0 0 0
sum -0.762005 3.34392e-15 1.40557e-07 -0.762005


Wall heat fluxes [W]
topAndBottom 0 0 0 0
left 3.09295 0 0 3.09295
right -2.62745 0 0 -2.62745
frontAndBack 0 0 0 0
sum 0.465497 0 0 0.465497

Time = 48

DILUPBiCG:  Solving for Ux, Initial residual = 0.00731516, Final residual = 6.27923e-05, No Iterations 1
DILUPBiCG:  Solving for Uy, Initial residual = 0.0104621, Final residual = 0.000100152, No Iterations 1
DICPCG:  Solving for p_rgh, Initial residual = 0.0188236, Final residual = 0.000173097, No Iterations 5
time step continuity errors : sum local = 0.000619509, global = -3.27696e-16, cumulative = 1.08991e-16
DILUPBiCG:  Solving for epsilon, Initial residual = 0.00662849, Final residual = 3.75921e-06, No Iterations 2
DILUPBiCG:  Solving for k, Initial residual = 0.0206631, Final residual = 4.80808e-05, No Iterations 2
DICPCG:  Solving for G, Initial residual = 0.00235048, Final residual = 6.99484e-05, No Iterations 10
Before T+T solve
BiCG:  Solving for T+T, Initial residual = 0.00110728, Final residual = 6.16487e-05, No Iterations 3
Tres = -0.748353
TsRes = -0.0639628
ExecutionTime = 0.15 s



Wall heat fluxes [W]
movingWall -0.250229 -1.4043e-15 0.253355 0.00312603
left 0.400316 -3.88483e-15 1.40914 1.80946
right -0.566604 -8.85023e-15 -1.99742 -2.56402
bottom -0.331159 0 0.33492 0.00376107
frontAndBack 0 0 0 0
sum -0.747676 -1.41394e-14 3.40743e-08 -0.747676


Wall heat fluxes [W]
topAndBottom 0 0 0 0
left 3.00526 0 0 3.00526
right -2.61875 0 0 -2.61875
frontAndBack 0 0 0 0
sum 0.38651 0 0 0.38651

Time = 49

DILUPBiCG:  Solving for Ux, Initial residual = 0.00693074, Final residual = 5.97637e-05, No Iterations 1
DILUPBiCG:  Solving for Uy, Initial residual = 0.0106667, Final residual = 9.81473e-05, No Iterations 1
DICPCG:  Solving for p_rgh, Initial residual = 0.0187684, Final residual = 0.000130217, No Iterations 6
time step continuity errors : sum local = 0.000643687, global = 1.42275e-16, cumulative = 2.51266e-16
DILUPBiCG:  Solving for epsilon, Initial residual = 0.00621426, Final residual = 3.58105e-06, No Iterations 2
DILUPBiCG:  Solving for k, Initial residual = 0.0195919, Final residual = 4.45532e-05, No Iterations 2
DICPCG:  Solving for G, Initial residual = 0.00240502, Final residual = 0.000190337, No Iterations 12
Before T+T solve
BiCG:  Solving for T+T, Initial residual = 0.00108052, Final residual = 0.000107446, No Iterations 1
Tres = -0.734416
TsRes = -0.0704068
ExecutionTime = 0.15 s



Wall heat fluxes [W]
movingWall -0.248438 3.60413e-15 0.251757 0.00331928
left 0.405004 -1.2487e-15 1.41378 1.81878
right -0.562858 5.30972e-15 -1.9976 -2.56045
bottom -0.328107 0 0.332059 0.00395267
frontAndBack 0 0 0 0
sum -0.734398 7.66516e-15 1.50124e-07 -0.734398


Wall heat fluxes [W]
topAndBottom 0 0 0 0
left 2.55888 0 0 2.55888
right -2.61765 0 0 -2.61765
frontAndBack 0 0 0 0
sum -0.0587751 0 0 -0.0587751

Time = 50

DILUPBiCG:  Solving for Ux, Initial residual = 0.00692472, Final residual = 5.96232e-05, No Iterations 1
DILUPBiCG:  Solving for Uy, Initial residual = 0.0102529, Final residual = 9.99905e-05, No Iterations 1
DICPCG:  Solving for p_rgh, Initial residual = 0.0192897, Final residual = 0.000177623, No Iterations 10
time step continuity errors : sum local = 0.000567204, global = 2.1242e-16, cumulative = 4.63686e-16
DILUPBiCG:  Solving for epsilon, Initial residual = 0.00578073, Final residual = 3.43459e-06, No Iterations 2
DILUPBiCG:  Solving for k, Initial residual = 0.018475, Final residual = 4.06426e-05, No Iterations 2
DICPCG:  Solving for G, Initial residual = 0.00248356, Final residual = 0.000191704, No Iterations 12
Before T+T solve
BiCG:  Solving for T+T, Initial residual = 0.0010437, Final residual = 7.12131e-05, No Iterations 3
Tres = -0.721416
TsRes = -0.0648719
ExecutionTime = 0.15 s



Wall heat fluxes [W]
movingWall -0.246465 -1.44298e-15 0.249773 0.0033085
left 0.4096 1.31807e-15 1.41842 1.82802
right -0.558576 7.9658e-15 -1.997 -2.55558
bottom -0.325096 0 0.328814 0.00371737
frontAndBack 0 0 0 0
sum -0.720537 7.84088e-15 1.81569e-07 -0.720537


Wall heat fluxes [W]
topAndBottom 0 0 0 0
left 3.12891 0 0 3.12891
right -2.60946 0 0 -2.60946
frontAndBack 0 0 0 0
sum 0.519448 0 0 0.519448

Time = 51

DILUPBiCG:  Solving for Ux, Initial residual = 0.00705437, Final residual = 5.81181e-05, No Iterations 1
DILUPBiCG:  Solving for Uy, Initial residual = 0.00987335, Final residual = 9.26408e-05, No Iterations 1
DICPCG:  Solving for p_rgh, Initial residual = 0.0180796, Final residual = 7.63181e-05, No Iterations 6
time step continuity errors : sum local = 0.000395473, global = -5.98879e-17, cumulative = 4.03798e-16
DILUPBiCG:  Solving for epsilon, Initial residual = 0.00540615, Final residual = 3.27572e-06, No Iterations 2
DILUPBiCG:  Solving for k, Initial residual = 0.0173392, Final residual = 3.76751e-05, No Iterations 2
DICPCG:  Solving for G, Initial residual = 0.00192403, Final residual = 7.32154e-05, No Iterations 10
Before T+T solve
BiCG:  Solving for T+T, Initial residual = 0.00106994, Final residual = 5.66665e-05, No Iterations 3
Tres = -0.707364
TsRes = -0.0619959
ExecutionTime = 0.15 s



Wall heat fluxes [W]
movingWall -0.243897 4.98565e-15 0.246669 0.00277121
left 0.414251 -2.84425e-15 1.42192 1.83618
right -0.555185 -6.64165e-15 -1.99349 -2.54867
bottom -0.321903 0 0.324895 0.00299262
frontAndBack 0 0 0 0
sum -0.706734 -4.50025e-15 3.44593e-08 -0.706734


Wall heat fluxes [W]
topAndBottom 0 0 0 0
left 2.95779 0 0 2.95779
right -2.60126 0 0 -2.60126
frontAndBack 0 0 0 0
sum 0.356528 0 0 0.356528

Time = 52

DILUPBiCG:  Solving for Ux, Initial residual = 0.00655669, Final residual = 5.52171e-05, No Iterations 1
DILUPBiCG:  Solving for Uy, Initial residual = 0.00996028, Final residual = 8.822e-05, No Iterations 1
DICPCG:  Solving for p_rgh, Initial residual = 0.0171123, Final residual = 7.42381e-05, No Iterations 11
time step continuity errors : sum local = 0.000247213, global = -1.16864e-16, cumulative = 2.86934e-16
DILUPBiCG:  Solving for epsilon, Initial residual = 0.00510465, Final residual = 3.10449e-06, No Iterations 2
DILUPBiCG:  Solving for k, Initial residual = 0.016326, Final residual = 3.52973e-05, No Iterations 2
DICPCG:  Solving for G, Initial residual = 0.00218118, Final residual = 0.000147705, No Iterations 12
Before T+T solve
BiCG:  Solving for T+T, Initial residual = 0.00104142, Final residual = 0.000102265, No Iterations 2
Tres = -0.694504
TsRes = -0.0640903
ExecutionTime = 0.16 s



Wall heat fluxes [W]
movingWall -0.242014 -7.8145e-16 0.245343 0.00332868
left 0.418939 -5.54976e-16 1.42612 1.84506
right -0.551656 -4.43023e-15 -1.99459 -2.54625
bottom -0.319548 0 0.323129 0.00358069
frontAndBack 0 0 0 0
sum -0.694279 -5.76665e-15 1.28751e-07 -0.694279


Wall heat fluxes [W]
topAndBottom 0 0 0 0
left 2.68366 0 0 2.68366
right -2.59859 0 0 -2.59859
frontAndBack 0 0 0 0
sum 0.0850647 0 0 0.0850647

Time = 53

DILUPBiCG:  Solving for Ux, Initial residual = 0.00655605, Final residual = 5.43838e-05, No Iterations 1
DILUPBiCG:  Solving for Uy, Initial residual = 0.00912818, Final residual = 8.84899e-05, No Iterations 1
DICPCG:  Solving for p_rgh, Initial residual = 0.0163289, Final residual = 0.000111158, No Iterations 6
time step continuity errors : sum local = 0.000565987, global = 1.96009e-16, cumulative = 4.82943e-16
DILUPBiCG:  Solving for epsilon, Initial residual = 0.00483599, Final residual = 2.92432e-06, No Iterations 2
DILUPBiCG:  Solving for k, Initial residual = 0.0153234, Final residual = 3.34614e-05, No Iterations 2
DICPCG:  Solving for G, Initial residual = 0.00232242, Final residual = 0.00016064, No Iterations 12
Before T+T solve
BiCG:  Solving for T+T, Initial residual = 0.00104832, Final residual = 7.0036e-05, No Iterations 3
Tres = -0.681818
TsRes = -0.0600738
ExecutionTime = 0.16 s



Wall heat fluxes [W]
movingWall -0.23992 4.28129e-15 0.243085 0.0031654
left 0.423773 2.56676e-15 1.4305 1.85428
right -0.547685 3.99002e-15 -1.99396 -2.54164
bottom -0.317273 0 0.320369 0.00309598
frontAndBack 0 0 0 0
sum -0.681105 1.08381e-14 1.95317e-07 -0.681105


Wall heat fluxes [W]
topAndBottom 0 0 0 0
left 3.00504 0 0 3.00504
right -2.59074 0 0 -2.59074
frontAndBack 0 0 0 0
sum 0.4143 0 0 0.4143

Time = 54

DILUPBiCG:  Solving for Ux, Initial residual = 0.00667235, Final residual = 5.60968e-05, No Iterations 1
DILUPBiCG:  Solving for Uy, Initial residual = 0.00904585, Final residual = 1.26616e-06, No Iterations 2
DICPCG:  Solving for p_rgh, Initial residual = 0.0161093, Final residual = 7.93664e-05, No Iterations 11
time step continuity errors : sum local = 0.000266204, global = -2.73168e-16, cumulative = 2.09775e-16
DILUPBiCG:  Solving for epsilon, Initial residual = 0.00457589, Final residual = 2.74537e-06, No Iterations 2
DILUPBiCG:  Solving for k, Initial residual = 0.0144026, Final residual = 3.20975e-05, No Iterations 2
DICPCG:  Solving for G, Initial residual = 0.0018549, Final residual = 0.000117908, No Iterations 11
Before T+T solve
BiCG:  Solving for T+T, Initial residual = 0.00102864, Final residual = 0.00010211, No Iterations 2
Tres = -0.66819
TsRes = -0.0637362
ExecutionTime = 0.16 s



Wall heat fluxes [W]
movingWall -0.237396 -5.03207e-15 0.240209 0.00281284
left 0.428646 2.77488e-16 1.43395 1.86259
right -0.544359 -1.0188e-14 -1.99179 -2.53615
bottom -0.314894 0 0.317631 0.00273698
frontAndBack 0 0 0 0
sum -0.668004 -1.49426e-14 -5.8574e-08 -0.668004


Wall heat fluxes [W]
topAndBottom 0 0 0 0
left 2.64875 0 0 2.64875
right -2.58846 0 0 -2.58846
frontAndBack 0 0 0 0
sum 0.0602893 0 0 0.0602893

Time = 55

DILUPBiCG:  Solving for Ux, Initial residual = 0.00626301, Final residual = 5.1243e-05, No Iterations 1
DILUPBiCG:  Solving for Uy, Initial residual = 0.00921356, Final residual = 8.5569e-05, No Iterations 1
DICPCG:  Solving for p_rgh, Initial residual = 0.0152645, Final residual = 0.000131348, No Iterations 6
time step continuity errors : sum local = 0.000666358, global = 1.22158e-16, cumulative = 3.31933e-16
DILUPBiCG:  Solving for epsilon, Initial residual = 0.0043113, Final residual = 2.57132e-06, No Iterations 2
DILUPBiCG:  Solving for k, Initial residual = 0.0135245, Final residual = 3.18515e-05, No Iterations 2
DICPCG:  Solving for G, Initial residual = 0.00203295, Final residual = 0.000152444, No Iterations 12
Before T+T solve
BiCG:  Solving for T+T, Initial residual = 0.00102376, Final residual = 6.7934e-05, No Iterations 3
Tres = -0.655913
TsRes = -0.0590958
ExecutionTime = 0.16 s



Wall heat fluxes [W]
movingWall -0.235283 -1.43558e-15 0.238439 0.00315601
left 0.433677 4.92541e-15 1.43778 1.87146
right -0.540506 8.86971e-16 -1.99224 -2.53274
bottom -0.313112 0 0.316012 0.0029006
frontAndBack 0 0 0 0
sum -0.655223 4.3768e-15 1.16731e-07 -0.655223


Wall heat fluxes [W]
topAndBottom 0 0 0 0
left 2.98021 0 0 2.98021
right -2.58101 0 0 -2.58101
frontAndBack 0 0 0 0
sum 0.399198 0 0 0.399198

Time = 56

DILUPBiCG:  Solving for Ux, Initial residual = 0.00645589, Final residual = 5.41849e-05, No Iterations 1
DILUPBiCG:  Solving for Uy, Initial residual = 0.00839385, Final residual = 8.87882e-07, No Iterations 2
DICPCG:  Solving for p_rgh, Initial residual = 0.014669, Final residual = 7.57042e-05, No Iterations 11
time step continuity errors : sum local = 0.000255328, global = 8.69532e-17, cumulative = 4.18886e-16
DILUPBiCG:  Solving for epsilon, Initial residual = 0.0040684, Final residual = 2.41714e-06, No Iterations 2
DILUPBiCG:  Solving for k, Initial residual = 0.012772, Final residual = 3.13742e-05, No Iterations 2
DICPCG:  Solving for G, Initial residual = 0.00176664, Final residual = 8.819e-05, No Iterations 11
Before T+T solve
BiCG:  Solving for T+T, Initial residual = 0.00100091, Final residual = 5.341e-05, No Iterations 3
Tres = -0.642924
TsRes = -0.0553788
ExecutionTime = 0.17 s



Wall heat fluxes [W]
movingWall -0.232689 1.04574e-17 0.23542 0.00273129
left 0.438716 4.09295e-15 1.44107 1.87978
right -0.537267 -2.21526e-15 -1.98999 -2.52725
bottom -0.311104 0 0.313501 0.00239695
frontAndBack 0 0 0 0
sum -0.642344 1.88814e-15 -5.63874e-08 -0.642344


Wall heat fluxes [W]
topAndBottom 0 0 0 0
left 2.90331 0 0 2.90331
right -2.57318 0 0 -2.57318
frontAndBack 0 0 0 0
sum 0.330133 0 0 0.330133

Time = 57

DILUPBiCG:  Solving for Ux, Initial residual = 0.00603801, Final residual = 4.95473e-05, No Iterations 1
DILUPBiCG:  Solving for Uy, Initial residual = 0.00850291, Final residual = 8.28832e-05, No Iterations 1
DICPCG:  Solving for p_rgh, Initial residual = 0.013809, Final residual = 0.000124146, No Iterations 6
time step continuity errors : sum local = 0.00063579, global = -8.7615e-17, cumulative = 3.31271e-16
DILUPBiCG:  Solving for epsilon, Initial residual = 0.00380926, Final residual = 2.25815e-06, No Iterations 2
DILUPBiCG:  Solving for k, Initial residual = 0.0119861, Final residual = 3.16469e-05, No Iterations 2
DICPCG:  Solving for G, Initial residual = 0.00188869, Final residual = 0.000153503, No Iterations 12
Before T+T solve
BiCG:  Solving for T+T, Initial residual = 0.000974246, Final residual = 9.14039e-05, No Iterations 2
Tres = -0.630478
TsRes = -0.0573724
ExecutionTime = 0.17 s



Wall heat fluxes [W]
movingWall -0.230503 -2.11892e-15 0.233568 0.00306533
left 0.443912 2.42802e-15 1.44466 1.88857
right -0.534098 -6.20607e-15 -1.99054 -2.52464
bottom -0.309604 0 0.312315 0.0027103
frontAndBack 0 0 0 0
sum -0.630294 -5.89697e-15 9.08726e-08 -0.630294


Wall heat fluxes [W]
topAndBottom 0 0 0 0
left 2.63587 0 0 2.63587
right -2.57091 0 0 -2.57091
frontAndBack 0 0 0 0
sum 0.0649622 0 0 0.0649622

Time = 58

DILUPBiCG:  Solving for Ux, Initial residual = 0.00604834, Final residual = 5.12985e-05, No Iterations 1
DILUPBiCG:  Solving for Uy, Initial residual = 0.00791231, Final residual = 8.58321e-07, No Iterations 2
DICPCG:  Solving for p_rgh, Initial residual = 0.0131369, Final residual = 6.90131e-05, No Iterations 11
time step continuity errors : sum local = 0.00023323, global = -2.8058e-17, cumulative = 3.03213e-16
DILUPBiCG:  Solving for epsilon, Initial residual = 0.00356735, Final residual = 2.12477e-06, No Iterations 2
DILUPBiCG:  Solving for k, Initial residual = 0.0112708, Final residual = 3.16682e-05, No Iterations 2
DICPCG:  Solving for G, Initial residual = 0.00200525, Final residual = 0.000147176, No Iterations 12
Before T+T solve
BiCG:  Solving for T+T, Initial residual = 0.000972431, Final residual = 6.68606e-05, No Iterations 3
Tres = -0.618485
TsRes = -0.0532089
ExecutionTime = 0.17 s



Wall heat fluxes [W]
movingWall -0.22822 7.17518e-16 0.231201 0.0029811
left 0.449095 2.08116e-15 1.4484 1.8975
right -0.530593 -4.43269e-15 -1.99026 -2.52085
bottom -0.308143 0 0.310654 0.0025109
frontAndBack 0 0 0 0
sum -0.617861 -1.63401e-15 1.51568e-07 -0.617861


Wall heat fluxes [W]
topAndBottom 0 0 0 0
left 2.92562 0 0 2.92562
right -2.56393 0 0 -2.56393
frontAndBack 0 0 0 0
sum 0.361688 0 0 0.361688

Time = 59

DILUPBiCG:  Solving for Ux, Initial residual = 0.00609074, Final residual = 5.083e-05, No Iterations 1
DILUPBiCG:  Solving for Uy, Initial residual = 0.00768726, Final residual = 9.04783e-07, No Iterations 2
DICPCG:  Solving for p_rgh, Initial residual = 0.012552, Final residual = 0.00012255, No Iterations 6
time step continuity errors : sum local = 0.000618187, global = -2.2764e-17, cumulative = 2.80449e-16
DILUPBiCG:  Solving for epsilon, Initial residual = 0.0033404, Final residual = 2.00187e-06, No Iterations 2
DILUPBiCG:  Solving for k, Initial residual = 0.0105597, Final residual = 3.19555e-05, No Iterations 2
DICPCG:  Solving for G, Initial residual = 0.0016203, Final residual = 5.00045e-05, No Iterations 11
Before T+T solve
BiCG:  Solving for T+T, Initial residual = 0.000955489, Final residual = 8.91407e-05, No Iterations 2
[...]
DILUPBiCG:  Solving for k, Initial residual = 1.99057e-11, Final residual = 3.54027e-14, No Iterations 2
DICPCG:  Solving for G, Initial residual = 3.60623e-12, Final residual = 1.1846e-13, No Iterations 11
Before T+T solve
BiCG:  Solving for T+T, Initial residual = 1.67967e-12, Final residual = 1.06118e-13, No Iterations 3
Tres = -8.37206e-10
TsRes = -7.4397e-11
ExecutionTime = 2.4 s



Wall heat fluxes [W]
movingWall -0.0928052 4.6897e-15 0.0928052 4.70662e-12
left 0.702639 -6.24348e-15 1.62678 2.32942
right -0.392955 -8.93805e-16 -1.93647 -2.32942
bottom -0.216879 0 0.216879 3.4896e-12
frontAndBack 0 0 0 0
sum -8.3644e-10 -2.44759e-15 7.47152e-13 -8.35696e-10


Wall heat fluxes [W]
topAndBottom 0 0 0 0
left 2.32942 0 0 2.32942
right -2.32942 0 0 -2.32942
frontAndBack 0 0 0 0
sum 4.33641e-10 0 0 4.33641e-10

Time = 987

DILUPBiCG:  Solving for Ux, Initial residual = 8.6914e-12, Final residual = 2.03641e-15, No Iterations 2
DILUPBiCG:  Solving for Uy, Initial residual = 1.26737e-11, Final residual = 3.02699e-15, No Iterations 2
DICPCG:  Solving for p_rgh, Initial residual = 1.50106e-11, Final residual = 1.04376e-13, No Iterations 10
time step continuity errors : sum local = 3.96991e-13, global = -8.73503e-17, cumulative = -1.90188e-16
DILUPBiCG:  Solving for epsilon, Initial residual = 9.85615e-12, Final residual = 4.98231e-15, No Iterations 2
DILUPBiCG:  Solving for k, Initial residual = 1.94884e-11, Final residual = 3.45564e-14, No Iterations 2
DICPCG:  Solving for G, Initial residual = 3.8068e-12, Final residual = 3.29003e-13, No Iterations 11
Before T+T solve
BiCG:  Solving for T+T, Initial residual = 1.62013e-12, Final residual = 1.57422e-13, No Iterations 2
Tres = -8.19101e-10
TsRes = -7.78922e-11
ExecutionTime = 2.41 s



Wall heat fluxes [W]
movingWall -0.0928052 1.02882e-15 0.0928052 5.15687e-12
left 0.702639 -1.10995e-15 1.62678 2.32942
right -0.392955 -4.91128e-15 -1.93647 -2.32942
bottom -0.216879 0 0.216879 4.11929e-12
frontAndBack 0 0 0 0
sum -8.18853e-10 -4.99241e-15 9.96342e-13 -8.17861e-10


Wall heat fluxes [W]
topAndBottom 0 0 0 0
left 2.32942 0 0 2.32942
right -2.32942 0 0 -2.32942
frontAndBack 0 0 0 0
sum 8.38942e-11 0 0 8.38942e-11

Time = 988

DILUPBiCG:  Solving for Ux, Initial residual = 8.63607e-12, Final residual = 1.90997e-15, No Iterations 2
DILUPBiCG:  Solving for Uy, Initial residual = 1.17842e-11, Final residual = 3.13519e-15, No Iterations 2
DICPCG:  Solving for p_rgh, Initial residual = 1.49926e-11, Final residual = 1.45767e-13, No Iterations 5
time step continuity errors : sum local = 7.18676e-13, global = 1.72054e-16, cumulative = -1.81347e-17
DILUPBiCG:  Solving for epsilon, Initial residual = 9.62276e-12, Final residual = 4.88327e-15, No Iterations 2
DILUPBiCG:  Solving for k, Initial residual = 1.90384e-11, Final residual = 3.38439e-14, No Iterations 2
DICPCG:  Solving for G, Initial residual = 4.04213e-12, Final residual = 3.29306e-13, No Iterations 11
Before T+T solve
BiCG:  Solving for T+T, Initial residual = 1.60701e-12, Final residual = 1.27579e-13, No Iterations 3
Tres = -8.01409e-10
TsRes = -7.19796e-11
ExecutionTime = 2.41 s



Wall heat fluxes [W]
movingWall -0.0928052 3.66569e-15 0.0928052 4.87931e-12
left 0.702639 9.01836e-15 1.62678 2.32942
right -0.392955 -7.1437e-15 -1.93647 -2.32942
bottom -0.216879 0 0.216879 3.67689e-12
frontAndBack 0 0 0 0
sum -8.00598e-10 5.54035e-15 1.60816e-13 -8.00432e-10


Wall heat fluxes [W]
topAndBottom 0 0 0 0
left 2.32942 0 0 2.32942
right -2.32942 0 0 -2.32942
frontAndBack 0 0 0 0
sum 4.70725e-10 0 0 4.70725e-10

Time = 989

DILUPBiCG:  Solving for Ux, Initial residual = 8.65461e-12, Final residual = 8.64401e-14, No Iterations 1
DILUPBiCG:  Solving for Uy, Initial residual = 1.1757e-11, Final residual = 3.43189e-15, No Iterations 2
DICPCG:  Solving for p_rgh, Initial residual = 1.44332e-11, Final residual = 1.05047e-13, No Iterations 10
time step continuity errors : sum local = 3.99373e-13, global = -1.1382e-16, cumulative = -1.31955e-16
DILUPBiCG:  Solving for epsilon, Initial residual = 9.42829e-12, Final residual = 4.77446e-15, No Iterations 2
DILUPBiCG:  Solving for k, Initial residual = 1.86379e-11, Final residual = 3.31042e-14, No Iterations 2
DICPCG:  Solving for G, Initial residual = 3.49449e-12, Final residual = 1.12173e-13, No Iterations 11
Before T+T solve
BiCG:  Solving for T+T, Initial residual = 1.5702e-12, Final residual = 1.56217e-13, No Iterations 2
Tres = -7.83178e-10
TsRes = -7.70822e-11
ExecutionTime = 2.41 s



Wall heat fluxes [W]
movingWall -0.0928052 -3.19391e-15 0.0928052 4.44186e-12
left 0.702639 0 1.62678 2.32942
right -0.392955 4.46306e-16 -1.93647 -2.32942
bottom -0.216879 0 0.216879 3.43089e-12
frontAndBack 0 0 0 0
sum -7.82957e-10 -2.7476e-15 5.09148e-13 -7.8245e-10


Wall heat fluxes [W]
topAndBottom 0 0 0 0
left 2.32942 0 0 2.32942
right -2.32942 0 0 -2.32942
frontAndBack 0 0 0 0
sum 6.68652e-11 0 0 6.68652e-11

Time = 990

DILUPBiCG:  Solving for Ux, Initial residual = 8.20531e-12, Final residual = 1.84452e-15, No Iterations 2
DILUPBiCG:  Solving for Uy, Initial residual = 1.17959e-11, Final residual = 2.46945e-15, No Iterations 2
DICPCG:  Solving for p_rgh, Initial residual = 1.44364e-11, Final residual = 1.37881e-13, No Iterations 5
time step continuity errors : sum local = 6.8613e-13, global = -1.18585e-16, cumulative = -2.50539e-16
DILUPBiCG:  Solving for epsilon, Initial residual = 9.20326e-12, Final residual = 4.66863e-15, No Iterations 2
DILUPBiCG:  Solving for k, Initial residual = 1.82165e-11, Final residual = 3.23819e-14, No Iterations 2
DICPCG:  Solving for G, Initial residual = 3.65597e-12, Final residual = 2.67455e-13, No Iterations 11
Before T+T solve
BiCG:  Solving for T+T, Initial residual = 1.54488e-12, Final residual = 1.1903e-13, No Iterations 3
Tres = -7.66681e-10
TsRes = -7.11559e-11
ExecutionTime = 2.41 s



Wall heat fluxes [W]
movingWall -0.0928052 -3.61156e-15 0.0928052 4.87586e-12
left 0.702639 -8.32464e-16 1.62678 2.32942
right -0.392955 1.78431e-15 -1.93647 -2.32942
bottom -0.216879 0 0.216879 3.75711e-12
frontAndBack 0 0 0 0
sum -7.65876e-10 -2.65971e-15 8.77298e-13 -7.65001e-10


Wall heat fluxes [W]
topAndBottom 0 0 0 0
left 2.32942 0 0 2.32942
right -2.32942 0 0 -2.32942
frontAndBack 0 0 0 0
sum 4.6279e-10 0 0 4.6279e-10

Time = 991

DILUPBiCG:  Solving for Ux, Initial residual = 8.27091e-12, Final residual = 1.79111e-15, No Iterations 2
DILUPBiCG:  Solving for Uy, Initial residual = 1.10323e-11, Final residual = 4.13545e-15, No Iterations 2
DICPCG:  Solving for p_rgh, Initial residual = 1.37739e-11, Final residual = 9.79488e-14, No Iterations 10
time step continuity errors : sum local = 3.72752e-13, global = -1.59348e-16, cumulative = -4.09887e-16
DILUPBiCG:  Solving for epsilon, Initial residual = 9.02417e-12, Final residual = 4.56594e-15, No Iterations 2
DILUPBiCG:  Solving for k, Initial residual = 1.78368e-11, Final residual = 3.16768e-14, No Iterations 2
DICPCG:  Solving for G, Initial residual = 3.66476e-12, Final residual = 1.18114e-13, No Iterations 11
Before T+T solve
BiCG:  Solving for T+T, Initial residual = 1.50208e-12, Final residual = 9.55491e-14, No Iterations 3
Tres = -7.49464e-10
TsRes = -6.69203e-11
ExecutionTime = 2.42 s



Wall heat fluxes [W]
movingWall -0.0928052 -3.72563e-16 0.0928052 4.1543e-12
left 0.702639 -6.65971e-15 1.62678 2.32942
right -0.392955 5.3584e-15 -1.93647 -2.32942
bottom -0.216879 0 0.216879 3.0797e-12
frontAndBack 0 0 0 0
sum -7.48773e-10 -1.67387e-15 3.86385e-13 -7.48389e-10


Wall heat fluxes [W]
topAndBottom 0 0 0 0
left 2.32942 0 0 2.32942
right -2.32942 0 0 -2.32942
frontAndBack 0 0 0 0
sum 3.90099e-10 0 0 3.90099e-10

Time = 992

DILUPBiCG:  Solving for Ux, Initial residual = 7.80553e-12, Final residual = 1.7642e-15, No Iterations 2
DILUPBiCG:  Solving for Uy, Initial residual = 1.13583e-11, Final residual = 2.34209e-15, No Iterations 2
DICPCG:  Solving for p_rgh, Initial residual = 1.33997e-11, Final residual = 1.28768e-13, No Iterations 5
time step continuity errors : sum local = 6.4656e-13, global = 1.87935e-16, cumulative = -2.21952e-16
DILUPBiCG:  Solving for epsilon, Initial residual = 8.8089e-12, Final residual = 4.46454e-15, No Iterations 2
DILUPBiCG:  Solving for k, Initial residual = 1.74406e-11, Final residual = 3.09644e-14, No Iterations 2
DICPCG:  Solving for G, Initial residual = 3.37459e-12, Final residual = 2.89373e-13, No Iterations 11
Before T+T solve
BiCG:  Solving for T+T, Initial residual = 1.45198e-12, Final residual = 1.4168e-13, No Iterations 2
Tres = -7.33221e-10
TsRes = -7.0051e-11
ExecutionTime = 2.42 s



Wall heat fluxes [W]
movingWall -0.0928052 3.24036e-15 0.0928052 4.63472e-12
left 0.702639 6.79846e-15 1.62678 2.32942
right -0.392955 -3.12574e-15 -1.93647 -2.32942
bottom -0.216879 0 0.216879 3.69726e-12
frontAndBack 0 0 0 0
sum -7.33007e-10 6.91307e-15 7.13013e-13 -7.32288e-10


Wall heat fluxes [W]
topAndBottom 0 0 0 0
left 2.32942 0 0 2.32942
right -2.32942 0 0 -2.32942
frontAndBack 0 0 0 0
sum 7.57545e-11 0 0 7.57545e-11

Time = 993

DILUPBiCG:  Solving for Ux, Initial residual = 7.70517e-12, Final residual = 1.76622e-15, No Iterations 2
DILUPBiCG:  Solving for Uy, Initial residual = 1.05691e-11, Final residual = 3.4507e-15, No Iterations 2
DICPCG:  Solving for p_rgh, Initial residual = 1.34746e-11, Final residual = 9.62964e-14, No Iterations 10
time step continuity errors : sum local = 3.66303e-13, global = -3.75341e-16, cumulative = -5.97293e-16
DILUPBiCG:  Solving for epsilon, Initial residual = 8.63299e-12, Final residual = 4.37053e-15, No Iterations 2
DILUPBiCG:  Solving for k, Initial residual = 1.70587e-11, Final residual = 3.02756e-14, No Iterations 2
DICPCG:  Solving for G, Initial residual = 3.71847e-12, Final residual = 3.09157e-13, No Iterations 11
Before T+T solve
BiCG:  Solving for T+T, Initial residual = 1.43907e-12, Final residual = 1.13917e-13, No Iterations 3
Tres = -7.17527e-10
TsRes = -6.46312e-11
ExecutionTime = 2.42 s



Wall heat fluxes [W]
movingWall -0.0928052 2.25243e-15 0.0928052 4.39501e-12
left 0.702639 -1.04058e-14 1.62678 2.32942
right -0.392955 -7.14276e-15 -1.93647 -2.32942
bottom -0.216879 0 0.216879 3.33211e-12
frontAndBack 0 0 0 0
sum -7.16781e-10 -1.52961e-14 1.85296e-13 -7.16611e-10


Wall heat fluxes [W]
topAndBottom 0 0 0 0
left 2.32942 0 0 2.32942
right -2.32942 0 0 -2.32942
frontAndBack 0 0 0 0
sum 4.21681e-10 0 0 4.21681e-10

Time = 994

DILUPBiCG:  Solving for Ux, Initial residual = 7.77236e-12, Final residual = 7.74592e-14, No Iterations 1
DILUPBiCG:  Solving for Uy, Initial residual = 1.04578e-11, Final residual = 2.65225e-15, No Iterations 2
DICPCG:  Solving for p_rgh, Initial residual = 1.28721e-11, Final residual = 1.261e-13, No Iterations 5
time step continuity errors : sum local = 6.20667e-13, global = 7.99387e-17, cumulative = -5.17355e-16
DILUPBiCG:  Solving for epsilon, Initial residual = 8.42712e-12, Final residual = 4.2773e-15, No Iterations 2
DILUPBiCG:  Solving for k, Initial residual = 1.66779e-11, Final residual = 2.9659e-14, No Iterations 2
DICPCG:  Solving for G, Initial residual = 3.2875e-12, Final residual = 6.80122e-14, No Iterations 11
Before T+T solve
BiCG:  Solving for T+T, Initial residual = 1.40673e-12, Final residual = 1.40336e-13, No Iterations 2
Tres = -7.01136e-10
TsRes = -6.91749e-11
ExecutionTime = 2.42 s



Wall heat fluxes [W]
movingWall -0.0928052 7.09243e-16 0.0928052 3.98888e-12
left 0.702639 -8.1859e-15 1.62678 2.32942
right -0.392955 1.65218e-14 -1.93647 -2.32942
bottom -0.216879 0 0.216879 3.06968e-12
frontAndBack 0 0 0 0
sum -7.00947e-10 9.04515e-15 5.31103e-13 -7.00407e-10


Wall heat fluxes [W]
topAndBottom 0 0 0 0
left 2.32942 0 0 2.32942
right -2.32942 0 0 -2.32942
frontAndBack 0 0 0 0
sum 6.09983e-11 0 0 6.09983e-11

Time = 995

DILUPBiCG:  Solving for Ux, Initial residual = 7.32527e-12, Final residual = 1.70483e-15, No Iterations 2
DILUPBiCG:  Solving for Uy, Initial residual = 1.059e-11, Final residual = 2.47694e-15, No Iterations 2
DICPCG:  Solving for p_rgh, Initial residual = 1.29674e-11, Final residual = 9.67741e-14, No Iterations 10
time step continuity errors : sum local = 3.68688e-13, global = -6.61744e-17, cumulative = -5.83529e-16
DILUPBiCG:  Solving for epsilon, Initial residual = 8.25616e-12, Final residual = 4.17763e-15, No Iterations 2
DILUPBiCG:  Solving for k, Initial residual = 1.63209e-11, Final residual = 2.89646e-14, No Iterations 2
DICPCG:  Solving for G, Initial residual = 3.38922e-12, Final residual = 3.14312e-13, No Iterations 11
Before T+T solve
BiCG:  Solving for T+T, Initial residual = 1.38206e-12, Final residual = 1.06574e-13, No Iterations 3
Tres = -6.86454e-10
TsRes = -6.35507e-11
ExecutionTime = 2.43 s



Wall heat fluxes [W]
movingWall -0.0928052 8.42696e-16 0.0928052 4.3747e-12
left 0.702639 1.52618e-15 1.62678 2.32942
right -0.392955 -6.2519e-15 -1.93647 -2.32942
bottom -0.216879 0 0.216879 3.38216e-12
frontAndBack 0 0 0 0
sum -6.85724e-10 -3.88302e-15 9.26509e-13 -6.84801e-10


Wall heat fluxes [W]
topAndBottom 0 0 0 0
left 2.32942 0 0 2.32942
right -2.32942 0 0 -2.32942
frontAndBack 0 0 0 0
sum 4.17816e-10 0 0 4.17816e-10

Time = 996

DILUPBiCG:  Solving for Ux, Initial residual = 7.42666e-12, Final residual = 1.55589e-15, No Iterations 2
DILUPBiCG:  Solving for Uy, Initial residual = 9.83752e-12, Final residual = 2.97174e-15, No Iterations 2
DICPCG:  Solving for p_rgh, Initial residual = 1.22873e-11, Final residual = 1.20634e-13, No Iterations 5
time step continuity errors : sum local = 6.0249e-13, global = 1.5723e-16, cumulative = -4.26299e-16
DILUPBiCG:  Solving for epsilon, Initial residual = 8.06501e-12, Final residual = 4.0903e-15, No Iterations 2
DILUPBiCG:  Solving for k, Initial residual = 1.59607e-11, Final residual = 2.8381e-14, No Iterations 2
DICPCG:  Solving for G, Initial residual = 3.18821e-12, Final residual = 7.18826e-14, No Iterations 11
Before T+T solve
BiCG:  Solving for T+T, Initial residual = 1.34718e-12, Final residual = 8.51333e-14, No Iterations 3
Tres = -6.70851e-10
TsRes = -5.9961e-11
ExecutionTime = 2.43 s



Wall heat fluxes [W]
movingWall -0.0928052 -1.42878e-16 0.0928052 3.65333e-12
left 0.702639 7.35343e-15 1.62678 2.32942
right -0.392955 -4.46562e-15 -1.93647 -2.32942
bottom -0.216879 0 0.216879 2.67106e-12
frontAndBack 0 0 0 0
sum -6.70242e-10 2.74493e-15 -7.33025e-14 -6.70312e-10


Wall heat fluxes [W]
topAndBottom 0 0 0 0
left 2.32942 0 0 2.32942
right -2.32942 0 0 -2.32942
frontAndBack 0 0 0 0
sum 3.46966e-10 0 0 3.46966e-10

Time = 997

DILUPBiCG:  Solving for Ux, Initial residual = 6.96325e-12, Final residual = 1.63514e-15, No Iterations 2
DILUPBiCG:  Solving for Uy, Initial residual = 1.02718e-11, Final residual = 2.29362e-15, No Iterations 2
DICPCG:  Solving for p_rgh, Initial residual = 1.20491e-11, Final residual = 8.42651e-14, No Iterations 10
time step continuity errors : sum local = 3.20478e-13, global = -2.95932e-16, cumulative = -7.22231e-16
DILUPBiCG:  Solving for epsilon, Initial residual = 7.90234e-12, Final residual = 3.99454e-15, No Iterations 2
DILUPBiCG:  Solving for k, Initial residual = 1.56259e-11, Final residual = 2.76976e-14, No Iterations 2
DICPCG:  Solving for G, Initial residual = 3.28184e-12, Final residual = 3.07563e-13, No Iterations 11
Before T+T solve
BiCG:  Solving for T+T, Initial residual = 1.29836e-12, Final residual = 1.25893e-13, No Iterations 2
Tres = -6.56507e-10
TsRes = -6.25532e-11
ExecutionTime = 2.43 s



Wall heat fluxes [W]
movingWall -0.0928052 -4.7495e-17 0.0928052 4.20636e-12
left 0.702639 -9.98957e-15 1.62678 2.32942
right -0.392955 4.45761e-16 -1.93647 -2.32942
bottom -0.216879 0 0.216879 3.39231e-12
frontAndBack 0 0 0 0
sum -6.56301e-10 -9.5913e-15 7.12569e-13 -6.55598e-10


Wall heat fluxes [W]
topAndBottom 0 0 0 0
left 2.32942 0 0 2.32942
right -2.32942 0 0 -2.32942
frontAndBack 0 0 0 0
sum 6.72511e-11 0 0 6.72511e-11

Time = 998

DILUPBiCG:  Solving for Ux, Initial residual = 6.92203e-12, Final residual = 1.53156e-15, No Iterations 2
DILUPBiCG:  Solving for Uy, Initial residual = 9.36314e-12, Final residual = 2.65809e-15, No Iterations 2
DICPCG:  Solving for p_rgh, Initial residual = 1.201e-11, Final residual = 1.17061e-13, No Iterations 5
time step continuity errors : sum local = 5.77184e-13, global = -1.63583e-16, cumulative = -8.85814e-16
DILUPBiCG:  Solving for epsilon, Initial residual = 7.71602e-12, Final residual = 3.91504e-15, No Iterations 2
DILUPBiCG:  Solving for k, Initial residual = 1.52643e-11, Final residual = 2.71255e-14, No Iterations 2
DICPCG:  Solving for G, Initial residual = 3.49075e-12, Final residual = 2.4707e-13, No Iterations 11
Before T+T solve
BiCG:  Solving for T+T, Initial residual = 1.28887e-12, Final residual = 1.02457e-13, No Iterations 3
Tres = -6.42426e-10
TsRes = -5.81399e-11
ExecutionTime = 2.43 s



Wall heat fluxes [W]
movingWall -0.0928052 2.82411e-18 0.0928052 3.96261e-12
left 0.702639 -7.76966e-15 1.62678 2.32942
right -0.392955 3.12688e-15 -1.93647 -2.32942
bottom -0.216879 0 0.216879 2.99744e-12
frontAndBack 0 0 0 0
sum -6.41761e-10 -4.63996e-15 4.41674e-13 -6.41324e-10


Wall heat fluxes [W]
topAndBottom 0 0 0 0
left 2.32942 0 0 2.32942
right -2.32942 0 0 -2.32942
frontAndBack 0 0 0 0
sum 3.80936e-10 0 0 3.80936e-10

Time = 999

DILUPBiCG:  Solving for Ux, Initial residual = 6.93905e-12, Final residual = 6.92782e-14, No Iterations 1
DILUPBiCG:  Solving for Uy, Initial residual = 9.3698e-12, Final residual = 2.86e-15, No Iterations 2
DICPCG:  Solving for p_rgh, Initial residual = 1.15543e-11, Final residual = 8.39851e-14, No Iterations 10
time step continuity errors : sum local = 3.19869e-13, global = 4.39398e-17, cumulative = -8.41874e-16
DILUPBiCG:  Solving for epsilon, Initial residual = 7.55911e-12, Final residual = 3.82747e-15, No Iterations 2
DILUPBiCG:  Solving for k, Initial residual = 1.49419e-11, Final residual = 2.65308e-14, No Iterations 2
DICPCG:  Solving for G, Initial residual = 3.02428e-12, Final residual = 2.97971e-13, No Iterations 10
Before T+T solve
BiCG:  Solving for T+T, Initial residual = 1.25945e-12, Final residual = 8.24993e-14, No Iterations 3
Tres = -6.28158e-10
TsRes = -5.50336e-11
ExecutionTime = 2.43 s



Wall heat fluxes [W]
movingWall -0.0928052 1.33847e-16 0.0928052 3.5686e-12
left 0.702639 2.77488e-15 1.62678 2.32942
right -0.392955 -1.78683e-15 -1.93647 -2.32942
bottom -0.216879 0 0.216879 2.69279e-12
frontAndBack 0 0 0 0
sum -6.27594e-10 1.1219e-15 6.85063e-13 -6.26908e-10


Wall heat fluxes [W]
topAndBottom 0 0 0 0
left 2.32942 0 0 2.32942
right -2.32942 0 0 -2.32942
frontAndBack 0 0 0 0
sum 3.19613e-10 0 0 3.19613e-10

Time = 1000

DILUPBiCG:  Solving for Ux, Initial residual = 6.55155e-12, Final residual = 1.47902e-15, No Iterations 2
DILUPBiCG:  Solving for Uy, Initial residual = 9.42546e-12, Final residual = 2.03073e-15, No Iterations 2
DICPCG:  Solving for p_rgh, Initial residual = 1.12343e-11, Final residual = 1.07846e-13, No Iterations 5
time step continuity errors : sum local = 5.41924e-13, global = 2.2817e-16, cumulative = -6.13705e-16
DILUPBiCG:  Solving for epsilon, Initial residual = 7.37695e-12, Final residual = 3.74022e-15, No Iterations 2
DILUPBiCG:  Solving for k, Initial residual = 1.46066e-11, Final residual = 2.59249e-14, No Iterations 2
DICPCG:  Solving for G, Initial residual = 3.36666e-12, Final residual = 2.61638e-13, No Iterations 11
Before T+T solve
BiCG:  Solving for T+T, Initial residual = 1.21511e-12, Final residual = 1.15256e-13, No Iterations 2
Tres = -6.1422e-10
TsRes = -5.7419e-11
ExecutionTime = 2.44 s



Wall heat fluxes [W]
movingWall -0.0928052 3.23625e-15 0.0928052 3.70708e-12
left 0.702639 4.30106e-15 1.62678 2.32942
right -0.392955 1.7863e-15 -1.93647 -2.32942
bottom -0.216879 0 0.216879 2.89321e-12
frontAndBack 0 0 0 0
sum -6.14051e-10 9.32361e-15 -3.74173e-13 -6.14416e-10


Wall heat fluxes [W]
topAndBottom 0 0 0 0
left 2.32942 0 0 2.32942
right -2.32942 0 0 -2.32942
frontAndBack 0 0 0 0
sum 6.00884e-11 0 0 6.00884e-11

End

