/*---------------------------------------------------------------------------*\
| =========                 |                                                 |
| \\      /  F ield         | OpenFOAM Extend Project: Open source CFD        |
|  \\    /   O peration     | Version:  1.6-ext                               |
|   \\  /    A nd           | Web:      www.extend-project.de                 |
|    \\/     M anipulation  |                                                 |
\*---------------------------------------------------------------------------*/
Build  : 1.6-ext-62b0c9cdf665
Exec   : chipAirCoolingSimpleFoam
Date   : Oct 21 2011
Time   : 15:23:58
Host   : galerius
PID    : 3309
Case   : /home/henrus/projects/ChipAirCooling/run/tutorial1_extendedHTC/conjugateContactCavity
nProcs : 1
SigFpe : Enabling floating point exception trapping (FOAM_SIGFPE).

// * * * * * * * * * * * * * * * * * * * * * * * * * * * * * * * * * * * * * //
Create time

Create mesh for time = 0


    From function void polyMesh::initMesh()
    in file meshes/polyMesh/polyMeshInitMesh.C at line 82
    Truncating neighbour list at 180 for backward compatibility

Reading g
Reading transportProperties

Calculating field g.h

Reading field p_rgh

Reading field U

Reading field T

Selecting external radiation source viewFactor
Here 2
externalRadiationSource::externalRadiationSource
Selecting external radiation source viewFactor
Here 2
externalRadiationSource::externalRadiationSource
Selecting external radiation source constantFlux
Here 2
externalRadiationSource::externalRadiationSource
Selecting external radiation source pointSource
Here 2
externalRadiationSource::externalRadiationSource
Reading/calculating face flux field phi

Selecting incompressible transport model Newtonian
Selecting RAS turbulence model kEpsilon
kEpsilonCoeffs
{
    Cmu             0.09;
    C1              1.44;
    C2              1.92;
    alphaEps        0.76923;
    sigmaEps        1.3;
}

Reading field kappaEff

Creating radiation model

Selecting radiationModel P1
Selecting absorptionEmissionModel constantAbsorptionEmission
Selecting scatterModel constantScatter
Reading field Tsolid

Reading solid thermal properties
Selecting thermal model multiMaterialZones
Selecting thermal model constant
Selecting thermal model constant
Selecting thermal gap model constant
Reading solid diffusivity k


Starting time loop

--> FOAM Warning : 
    From function dlLibraryTable::open(const dictionary& dict, const word& libsEntry, const TablePtr tablePtr)
    in file lnInclude/dlLibraryTableTemplates.C at line 68
    library "libairbusMaterialModels.so" did not introduce any new entries

Time = 1

DILUPBiCG:  Solving for Ux, Initial residual = 1, Final residual = 9.72759e-05, No Iterations 2
DILUPBiCG:  Solving for Uy, Initial residual = 1, Final residual = 0.000174731, No Iterations 2
DICPCG:  Solving for p_rgh, Initial residual = 1, Final residual = 0.00985949, No Iterations 5
time step continuity errors : sum local = 0.00481111, global = 2.0845e-18, cumulative = 2.0845e-18
DILUPBiCG:  Solving for epsilon, Initial residual = 0.0778063, Final residual = 0.000142604, No Iterations 2
DILUPBiCG:  Solving for k, Initial residual = 1, Final residual = 0.00249972, No Iterations 2
DICPCG:  Solving for G, Initial residual = 1, Final residual = 0.0255384, No Iterations 11
Before T+T solve
BiCG:  Solving for T+T, Initial residual = 0.306821, Final residual = 0.000234253, No Iterations 9
Tres = -0.753401
TsRes = -16.4319
ExecutionTime = 0.02 s



Wall heat fluxes [W]
movingWall 0.011429 0 8.04921e-07 0.0114298
left 0.00500892 0 -1.20093e-06 0.00500772
right -0.617673 0 8.04921e-07 -0.617673
bottom -0.152165 0 -1.20093e-06 -0.152167
frontAndBack 0 0 0 0
sum -0.753401 0 -7.92022e-07 -0.753402


Wall heat fluxes [W]
topAndBottom 0 0 0 0
left 1.04028 0 0 1.04028
right -17.4722 0 0 -17.4722
frontAndBack 0 0 0 0
sum -16.4319 0 0 -16.4319

Time = 2

DILUPBiCG:  Solving for Ux, Initial residual = 0.887687, Final residual = 9.2024e-05, No Iterations 2
DILUPBiCG:  Solving for Uy, Initial residual = 0.829139, Final residual = 0.00715669, No Iterations 1
DICPCG:  Solving for p_rgh, Initial residual = 0.901188, Final residual = 0.0069079, No Iterations 6
time step continuity errors : sum local = 0.02286, global = 2.04082e-16, cumulative = 2.06166e-16
DILUPBiCG:  Solving for epsilon, Initial residual = 0.0242348, Final residual = 3.05522e-05, No Iterations 2
DILUPBiCG:  Solving for k, Initial residual = 0.650793, Final residual = 0.000806919, No Iterations 2
DICPCG:  Solving for G, Initial residual = 0.993798, Final residual = 0.031808, No Iterations 13
Before T+T solve
BiCG:  Solving for T+T, Initial residual = 0.0226686, Final residual = 1.74108e-05, No Iterations 11
Tres = -0.936805
TsRes = -4.58407
ExecutionTime = 0.02 s



Wall heat fluxes [W]
movingWall 0.0117586 1.35228e-19 0.411539 0.423297
left 0.0112103 1.75816e-20 0.408036 0.419246
right -0.628863 9.40608e-15 -1.1148 -1.74366
bottom -0.330911 0 0.295224 -0.0356869
frontAndBack 0 0 0 0
sum -0.936805 9.40623e-15 3.10378e-06 -0.936802


Wall heat fluxes [W]
topAndBottom 0 0 0 0
left 2.05803 0 0 2.05803
right -6.6421 0 0 -6.6421
frontAndBack 0 0 0 0
sum -4.58407 0 0 -4.58407

Time = 3

DILUPBiCG:  Solving for Ux, Initial residual = 0.235934, Final residual = 0.00208498, No Iterations 1
DILUPBiCG:  Solving for Uy, Initial residual = 0.284241, Final residual = 0.00227509, No Iterations 1
DICPCG:  Solving for p_rgh, Initial residual = 0.413356, Final residual = 0.00354723, No Iterations 7
time step continuity errors : sum local = 0.0126064, global = 2.44978e-16, cumulative = 4.51144e-16
DILUPBiCG:  Solving for epsilon, Initial residual = 0.0753796, Final residual = 4.11773e-05, No Iterations 2
DILUPBiCG:  Solving for k, Initial residual = 0.218099, Final residual = 0.000272165, No Iterations 2
DICPCG:  Solving for G, Initial residual = 0.16268, Final residual = 0.00477408, No Iterations 11
Before T+T solve
BiCG:  Solving for T+T, Initial residual = 0.00669203, Final residual = 4.7653e-06, No Iterations 10
Tres = -0.899787
TsRes = -2.30696
ExecutionTime = 0.03 s



Wall heat fluxes [W]
movingWall 0.014329 -4.40561e-18 0.57723 0.591559
left 0.0148778 -3.57784e-17 0.57375 0.588628
right -0.648446 1.1217e-14 -1.28148 -1.92992
bottom -0.280548 0 0.130497 -0.150051
frontAndBack 0 0 0 0
sum -0.899787 1.11768e-14 -5.56492e-08 -0.899787


Wall heat fluxes [W]
topAndBottom 0 0 0 0
left 2.2079 0 0 2.2079
right -4.51486 0 0 -4.51486
frontAndBack 0 0 0 0
sum -2.30696 0 0 -2.30696

Time = 4

DILUPBiCG:  Solving for Ux, Initial residual = 0.157715, Final residual = 0.00151585, No Iterations 1
DILUPBiCG:  Solving for Uy, Initial residual = 0.238361, Final residual = 0.00232489, No Iterations 1
DICPCG:  Solving for p_rgh, Initial residual = 0.156672, Final residual = 0.00110223, No Iterations 10
time step continuity errors : sum local = 0.00303118, global = -1.91972e-16, cumulative = 2.59172e-16
DILUPBiCG:  Solving for epsilon, Initial residual = 0.11914, Final residual = 9.5694e-05, No Iterations 2
DILUPBiCG:  Solving for k, Initial residual = 0.131544, Final residual = 0.000168355, No Iterations 2
DICPCG:  Solving for G, Initial residual = 0.0507361, Final residual = 0.00158879, No Iterations 13
Before T+T solve
BiCG:  Solving for T+T, Initial residual = 0.0038927, Final residual = 1.84024e-06, No Iterations 11
Tres = -0.936464
TsRes = -1.36366
ExecutionTime = 0.03 s



Wall heat fluxes [W]
movingWall 0.0163382 -1.89689e-18 0.63678 0.653119
left 0.0177169 -2.25315e-16 0.632733 0.65045
right -0.659408 -9.00971e-15 -1.45995 -2.11936
bottom -0.311111 0 0.190435 -0.120676
frontAndBack 0 0 0 0
sum -0.936464 -9.23692e-15 6.08756e-07 -0.936463


Wall heat fluxes [W]
topAndBottom 0 0 0 0
left 2.3919 0 0 2.3919
right -3.75555 0 0 -3.75555
frontAndBack 0 0 0 0
sum -1.36366 0 0 -1.36366

Time = 5

DILUPBiCG:  Solving for Ux, Initial residual = 0.11951, Final residual = 0.00109985, No Iterations 1
DILUPBiCG:  Solving for Uy, Initial residual = 0.159522, Final residual = 0.00135195, No Iterations 1
DICPCG:  Solving for p_rgh, Initial residual = 0.10818, Final residual = 0.000938663, No Iterations 10
time step continuity errors : sum local = 0.00227395, global = -1.94818e-16, cumulative = 6.43547e-17
DILUPBiCG:  Solving for epsilon, Initial residual = 0.141005, Final residual = 0.000126005, No Iterations 2
DILUPBiCG:  Solving for k, Initial residual = 0.0983389, Final residual = 0.000148357, No Iterations 2
DICPCG:  Solving for G, Initial residual = 0.0544641, Final residual = 0.00153998, No Iterations 13
Before T+T solve
BiCG:  Solving for T+T, Initial residual = 0.00285784, Final residual = 1.10607e-06, No Iterations 11
Tres = -0.962009
TsRes = -0.881324
ExecutionTime = 0.04 s



Wall heat fluxes [W]
movingWall 0.0178926 -5.72183e-16 0.713772 0.731665
left 0.0208853 -1.42394e-16 0.709287 0.730173
right -0.665101 -7.89708e-15 -1.63263 -2.29773
bottom -0.335685 0 0.209575 -0.12611
frontAndBack 0 0 0 0
sum -0.962009 -8.61166e-15 7.69752e-07 -0.962008


Wall heat fluxes [W]
topAndBottom 0 0 0 0
left 2.49303 0 0 2.49303
right -3.37436 0 0 -3.37436
frontAndBack 0 0 0 0
sum -0.881324 0 0 -0.881324

Time = 6

DILUPBiCG:  Solving for Ux, Initial residual = 0.0962581, Final residual = 0.000785954, No Iterations 1
DILUPBiCG:  Solving for Uy, Initial residual = 0.0934565, Final residual = 0.000721249, No Iterations 1
DICPCG:  Solving for p_rgh, Initial residual = 0.0974022, Final residual = 0.000561946, No Iterations 11
time step continuity errors : sum local = 0.00146935, global = -3.3567e-16, cumulative = -2.71315e-16
DILUPBiCG:  Solving for epsilon, Initial residual = 0.137248, Final residual = 0.0001326, No Iterations 2
DILUPBiCG:  Solving for k, Initial residual = 0.0813215, Final residual = 0.00024833, No Iterations 2
DICPCG:  Solving for G, Initial residual = 0.035041, Final residual = 0.00105603, No Iterations 13
Before T+T solve
BiCG:  Solving for T+T, Initial residual = 0.00231353, Final residual = 1.82312e-06, No Iterations 10
Tres = -0.976045
TsRes = -0.582842
ExecutionTime = 0.04 s



Wall heat fluxes [W]
movingWall 0.0193517 5.89696e-16 0.767927 0.787279
left 0.0248335 -2.60145e-17 0.76307 0.787903
right -0.666899 -1.6376e-14 -1.7606 -2.4275
bottom -0.353332 0 0.229605 -0.123727
frontAndBack 0 0 0 0
sum -0.976045 -1.58123e-14 3.7065e-07 -0.976045


Wall heat fluxes [W]
topAndBottom 0 0 0 0
left 2.56233 0 0 2.56233
right -3.14517 0 0 -3.14517
frontAndBack 0 0 0 0
sum -0.582842 0 0 -0.582842

Time = 7

DILUPBiCG:  Solving for Ux, Initial residual = 0.0758584, Final residual = 0.000625194, No Iterations 1
DILUPBiCG:  Solving for Uy, Initial residual = 0.0743445, Final residual = 0.000539995, No Iterations 1
DICPCG:  Solving for p_rgh, Initial residual = 0.0817543, Final residual = 0.000428384, No Iterations 11
time step continuity errors : sum local = 0.00100275, global = 1.16748e-16, cumulative = -1.54567e-16
DILUPBiCG:  Solving for epsilon, Initial residual = 0.113429, Final residual = 0.00012155, No Iterations 2
DILUPBiCG:  Solving for k, Initial residual = 0.0715315, Final residual = 9.62007e-05, No Iterations 2
DICPCG:  Solving for G, Initial residual = 0.0245897, Final residual = 0.000707127, No Iterations 13
Before T+T solve
BiCG:  Solving for T+T, Initial residual = 0.00197775, Final residual = 1.63886e-06, No Iterations 8
Tres = -0.979029
TsRes = -0.390698
ExecutionTime = 0.04 s



Wall heat fluxes [W]
movingWall 0.0209761 5.08841e-16 0.808468 0.829444
left 0.0283872 8.6715e-18 0.803367 0.831754
right -0.666383 5.49433e-15 -1.85068 -2.51706
bottom -0.362009 0 0.238841 -0.123167
frontAndBack 0 0 0 0
sum -0.979029 6.01184e-15 2.98018e-07 -0.979028


Wall heat fluxes [W]
topAndBottom 0 0 0 0
left 2.60561 0 0 2.60561
right -2.99631 0 0 -2.99631
frontAndBack 0 0 0 0
sum -0.390698 0 0 -0.390698

Time = 8

DILUPBiCG:  Solving for Ux, Initial residual = 0.0637385, Final residual = 0.000526132, No Iterations 1
DILUPBiCG:  Solving for Uy, Initial residual = 0.0670433, Final residual = 0.000472288, No Iterations 1
DICPCG:  Solving for p_rgh, Initial residual = 0.0730086, Final residual = 0.000614837, No Iterations 10
time step continuity errors : sum local = 0.00135302, global = -6.26093e-17, cumulative = -2.17176e-16
DILUPBiCG:  Solving for epsilon, Initial residual = 0.0888284, Final residual = 0.000884112, No Iterations 2
DILUPBiCG:  Solving for k, Initial residual = 0.0661671, Final residual = 0.000106435, No Iterations 2
DICPCG:  Solving for G, Initial residual = 0.0168621, Final residual = 0.000479773, No Iterations 13
Before T+T solve
BiCG:  Solving for T+T, Initial residual = 0.00175729, Final residual = 6.09234e-07, No Iterations 8
Tres = -0.975753
TsRes = -0.26409
ExecutionTime = 0.05 s



Wall heat fluxes [W]
movingWall 0.0225256 -2.70984e-19 0.837509 0.860034
left 0.0306454 -2.77894e-16 0.832237 0.862882
right -0.664497 -2.54653e-15 -1.91202 -2.57652
bottom -0.364427 0 0.242274 -0.122154
frontAndBack 0 0 0 0
sum -0.975753 -2.8247e-15 1.23245e-07 -0.975753


Wall heat fluxes [W]
topAndBottom 0 0 0 0
left 2.63307 0 0 2.63307
right -2.89716 0 0 -2.89716
frontAndBack 0 0 0 0
sum -0.26409 0 0 -0.26409

Time = 9

DILUPBiCG:  Solving for Ux, Initial residual = 0.0554647, Final residual = 0.000448877, No Iterations 1
DILUPBiCG:  Solving for Uy, Initial residual = 0.0620305, Final residual = 0.000427929, No Iterations 1
DICPCG:  Solving for p_rgh, Initial residual = 0.0726211, Final residual = 0.000526941, No Iterations 10
time step continuity errors : sum local = 0.00115262, global = 3.6664e-16, cumulative = 1.49463e-16
DILUPBiCG:  Solving for epsilon, Initial residual = 0.0705545, Final residual = 9.1003e-05, No Iterations 2
DILUPBiCG:  Solving for k, Initial residual = 0.0620606, Final residual = 0.000102355, No Iterations 2
DICPCG:  Solving for G, Initial residual = 0.0119051, Final residual = 0.000314885, No Iterations 13
Before T+T solve
BiCG:  Solving for T+T, Initial residual = 0.0016165, Final residual = 4.35934e-07, No Iterations 8
Tres = -0.969522
TsRes = -0.179668
ExecutionTime = 0.05 s



Wall heat fluxes [W]
movingWall 0.0240183 -5.08638e-16 0.858619 0.882638
left 0.031749 -1.92399e-17 0.853248 0.884997
right -0.662032 1.87369e-14 -1.95326 -2.6153
bottom -0.363258 0 0.241398 -0.121861
frontAndBack 0 0 0 0
sum -0.969522 1.8209e-14 1.13209e-07 -0.969522


Wall heat fluxes [W]
topAndBottom 0 0 0 0
left 2.65047 0 0 2.65047
right -2.83013 0 0 -2.83013
frontAndBack 0 0 0 0
sum -0.179668 0 0 -0.179668

Time = 10

DILUPBiCG:  Solving for Ux, Initial residual = 0.0487491, Final residual = 0.000395568, No Iterations 1
DILUPBiCG:  Solving for Uy, Initial residual = 0.0576825, Final residual = 0.000387378, No Iterations 1
DICPCG:  Solving for p_rgh, Initial residual = 0.07274, Final residual = 0.000499601, No Iterations 10
time step continuity errors : sum local = 0.00107779, global = -2.07705e-16, cumulative = -5.82418e-17
DILUPBiCG:  Solving for epsilon, Initial residual = 0.0568127, Final residual = 5.49248e-05, No Iterations 2
DILUPBiCG:  Solving for k, Initial residual = 0.0588008, Final residual = 9.2051e-05, No Iterations 2
DICPCG:  Solving for G, Initial residual = 0.00838185, Final residual = 0.00021394, No Iterations 13
Before T+T solve
BiCG:  Solving for T+T, Initial residual = 0.00152618, Final residual = 3.52631e-07, No Iterations 8
Tres = -0.962339
TsRes = -0.12294
ExecutionTime = 0.05 s



Wall heat fluxes [W]
movingWall 0.0254771 7.12689e-16 0.873793 0.89927
left 0.0323769 -1.51751e-16 0.868356 0.900733
right -0.659408 -1.15258e-14 -1.9809 -2.64031
bottom -0.360785 0 0.238754 -0.122031
frontAndBack 0 0 0 0
sum -0.962339 -1.09648e-14 4.98283e-08 -0.962339


Wall heat fluxes [W]
topAndBottom 0 0 0 0
left 2.66152 0 0 2.66152
right -2.78446 0 0 -2.78446
frontAndBack 0 0 0 0
sum -0.12294 0 0 -0.12294

Time = 11

DILUPBiCG:  Solving for Ux, Initial residual = 0.04386, Final residual = 0.000362719, No Iterations 1
DILUPBiCG:  Solving for Uy, Initial residual = 0.0536622, Final residual = 0.000361661, No Iterations 1
DICPCG:  Solving for p_rgh, Initial residual = 0.0715274, Final residual = 0.000474768, No Iterations 10
time step continuity errors : sum local = 0.00101054, global = 5.90938e-17, cumulative = 8.51996e-19
DILUPBiCG:  Solving for epsilon, Initial residual = 0.0463353, Final residual = 5.76542e-05, No Iterations 2
DILUPBiCG:  Solving for k, Initial residual = 0.0558071, Final residual = 8.05324e-05, No Iterations 2
DICPCG:  Solving for G, Initial residual = 0.00588176, Final residual = 0.000144958, No Iterations 13
Before T+T solve
BiCG:  Solving for T+T, Initial residual = 0.0014663, Final residual = 2.8841e-07, No Iterations 8
Tres = -0.955044
TsRes = -0.0844069
ExecutionTime = 0.06 s



Wall heat fluxes [W]
movingWall 0.0269309 1.40912e-16 0.884583 0.911514
left 0.0327825 -1.04058e-16 0.879106 0.911889
right -0.656886 4.70054e-15 -1.99958 -2.65646
bottom -0.357872 0 0.235888 -0.121984
frontAndBack 0 0 0 0
sum -0.955044 4.7374e-15 2.97233e-08 -0.955044


Wall heat fluxes [W]
topAndBottom 0 0 0 0
left 2.66877 0 0 2.66877
right -2.75318 0 0 -2.75318
frontAndBack 0 0 0 0
sum -0.0844069 0 0 -0.0844069

Time = 12

DILUPBiCG:  Solving for Ux, Initial residual = 0.0399659, Final residual = 0.000347199, No Iterations 1
DILUPBiCG:  Solving for Uy, Initial residual = 0.0503715, Final residual = 0.00033601, No Iterations 1
DICPCG:  Solving for p_rgh, Initial residual = 0.0700256, Final residual = 0.000435776, No Iterations 10
time step continuity errors : sum local = 0.00092429, global = -1.81784e-16, cumulative = -1.80932e-16
DILUPBiCG:  Solving for epsilon, Initial residual = 0.0384832, Final residual = 5.99525e-05, No Iterations 2
DILUPBiCG:  Solving for k, Initial residual = 0.053164, Final residual = 7.11928e-05, No Iterations 2
DICPCG:  Solving for G, Initial residual = 0.00421462, Final residual = 0.000101068, No Iterations 13
Before T+T solve
BiCG:  Solving for T+T, Initial residual = 0.00142611, Final residual = 1.41825e-06, No Iterations 7
Tres = -0.947903
TsRes = -0.0582011
ExecutionTime = 0.06 s



Wall heat fluxes [W]
movingWall 0.028416 6.9372e-17 0.892391 0.920806
left 0.0329785 5.41969e-17 0.886886 0.919864
right -0.654622 -9.41387e-15 -2.01211 -2.66673
bottom -0.354675 0 0.232834 -0.121841
frontAndBack 0 0 0 0
sum -0.947903 -9.2903e-15 2.61086e-09 -0.947903


Wall heat fluxes [W]
topAndBottom 0 0 0 0
left 2.67351 0 0 2.67351
right -2.73171 0 0 -2.73171
frontAndBack 0 0 0 0
sum -0.0582011 0 0 -0.0582011

Time = 13

DILUPBiCG:  Solving for Ux, Initial residual = 0.0367687, Final residual = 0.000358492, No Iterations 1
DILUPBiCG:  Solving for Uy, Initial residual = 0.0474021, Final residual = 0.000302303, No Iterations 1
DICPCG:  Solving for p_rgh, Initial residual = 0.0666309, Final residual = 0.000409503, No Iterations 10
time step continuity errors : sum local = 0.000878669, global = 2.85212e-17, cumulative = -1.52411e-16
DILUPBiCG:  Solving for epsilon, Initial residual = 0.0327183, Final residual = 5.71286e-05, No Iterations 2
DILUPBiCG:  Solving for k, Initial residual = 0.0509037, Final residual = 6.7587e-05, No Iterations 2
DICPCG:  Solving for G, Initial residual = 0.00307393, Final residual = 7.00447e-05, No Iterations 13
Before T+T solve
BiCG:  Solving for T+T, Initial residual = 0.00140078, Final residual = 1.17157e-06, No Iterations 7
Tres = -0.941044
TsRes = -0.0403472
ExecutionTime = 0.06 s



Wall heat fluxes [W]
movingWall 0.0299766 6.9372e-16 0.898122 0.928099
left 0.0330338 -4.11896e-17 0.8926 0.925634
right -0.652659 1.28413e-15 -2.02044 -2.6731
bottom -0.351395 0 0.229716 -0.12168
frontAndBack 0 0 0 0
sum -0.941044 1.93666e-15 -3.29949e-09 -0.941044


Wall heat fluxes [W]
topAndBottom 0 0 0 0
left 2.67648 0 0 2.67648
right -2.71683 0 0 -2.71683
frontAndBack 0 0 0 0
sum -0.0403472 0 0 -0.0403472

Time = 14

DILUPBiCG:  Solving for Ux, Initial residual = 0.0340616, Final residual = 6.16173e-06, No Iterations 2
DILUPBiCG:  Solving for Uy, Initial residual = 0.0450717, Final residual = 0.000279261, No Iterations 1
DICPCG:  Solving for p_rgh, Initial residual = 0.0624628, Final residual = 0.000410336, No Iterations 10
time step continuity errors : sum local = 0.000888632, global = 4.32516e-16, cumulative = 2.80106e-16
DILUPBiCG:  Solving for epsilon, Initial residual = 0.028466, Final residual = 4.66815e-05, No Iterations 2
DILUPBiCG:  Solving for k, Initial residual = 0.0493263, Final residual = 6.55845e-05, No Iterations 2
DICPCG:  Solving for G, Initial residual = 0.00228232, Final residual = 0.000215652, No Iterations 11
Before T+T solve
BiCG:  Solving for T+T, Initial residual = 0.00139063, Final residual = 9.82703e-07, No Iterations 7
Tres = -0.934426
TsRes = -0.0282028
ExecutionTime = 0.06 s



Wall heat fluxes [W]
movingWall 0.0316706 -3.55531e-16 0.902388 0.934059
left 0.0330502 -1.99444e-16 0.896855 0.929905
right -0.650989 2.18422e-14 -2.02592 -2.6769
bottom -0.348158 0 0.226672 -0.121486
frontAndBack 0 0 0 0
sum -0.934426 2.12873e-14 9.57455e-08 -0.934426


Wall heat fluxes [W]
topAndBottom 0 0 0 0
left 2.67827 0 0 2.67827
right -2.70647 0 0 -2.70647
frontAndBack 0 0 0 0
sum -0.0282028 0 0 -0.0282028

Time = 15

DILUPBiCG:  Solving for Ux, Initial residual = 0.0316526, Final residual = 6.35182e-06, No Iterations 2
DILUPBiCG:  Solving for Uy, Initial residual = 0.0435933, Final residual = 0.000263416, No Iterations 1
DICPCG:  Solving for p_rgh, Initial residual = 0.0565991, Final residual = 0.000421544, No Iterations 10
time step continuity errors : sum local = 0.000922508, global = 2.60066e-16, cumulative = 5.40171e-16
DILUPBiCG:  Solving for epsilon, Initial residual = 0.0254562, Final residual = 3.51744e-05, No Iterations 2
DILUPBiCG:  Solving for k, Initial residual = 0.0483415, Final residual = 6.49727e-05, No Iterations 2
DICPCG:  Solving for G, Initial residual = 0.00188769, Final residual = 0.000179987, No Iterations 12
Before T+T solve
BiCG:  Solving for T+T, Initial residual = 0.00138622, Final residual = 8.25291e-07, No Iterations 7
Tres = -0.92823
TsRes = -0.0199576
ExecutionTime = 0.06 s



Wall heat fluxes [W]
movingWall 0.0335917 -2.25459e-16 0.905628 0.93922
left 0.0331422 -1.38744e-16 0.900088 0.93323
right -0.64958 1.3279e-14 -2.02947 -2.67905
bottom -0.345385 0 0.223754 -0.12163
frontAndBack 0 0 0 0
sum -0.92823 1.29148e-14 -1.98821e-07 -0.928231


Wall heat fluxes [W]
topAndBottom 0 0 0 0
left 2.67924 0 0 2.67924
right -2.6992 0 0 -2.6992
frontAndBack 0 0 0 0
sum -0.0199576 0 0 -0.0199576

Time = 16

DILUPBiCG:  Solving for Ux, Initial residual = 0.0295045, Final residual = 5.93278e-06, No Iterations 2
DILUPBiCG:  Solving for Uy, Initial residual = 0.0423744, Final residual = 0.000254603, No Iterations 1
DICPCG:  Solving for p_rgh, Initial residual = 0.0536352, Final residual = 0.000493749, No Iterations 9
time step continuity errors : sum local = 0.00109996, global = -4.71162e-17, cumulative = 4.93055e-16
DILUPBiCG:  Solving for epsilon, Initial residual = 0.0234925, Final residual = 2.60937e-05, No Iterations 2
DILUPBiCG:  Solving for k, Initial residual = 0.0479661, Final residual = 6.53719e-05, No Iterations 2
DICPCG:  Solving for G, Initial residual = 0.00156805, Final residual = 4.34238e-05, No Iterations 13
Before T+T solve
BiCG:  Solving for T+T, Initial residual = 0.00138531, Final residual = 1.03533e-06, No Iterations 6
Tres = -0.922033
TsRes = -0.0144054
ExecutionTime = 0.07 s



Wall heat fluxes [W]
movingWall 0.0357983 -6.07005e-16 0.907976 0.943775
left 0.0333785 8.6715e-18 0.902428 0.935806
right -0.648382 -1.7149e-15 -2.0319 -2.68028
bottom -0.342827 0 0.221498 -0.121329
frontAndBack 0 0 0 0
sum -0.922033 -2.31324e-15 -5.78858e-08 -0.922033


Wall heat fluxes [W]
topAndBottom 0 0 0 0
left 2.67979 0 0 2.67979
right -2.6942 0 0 -2.6942
frontAndBack 0 0 0 0
sum -0.0144054 0 0 -0.0144054

Time = 17

DILUPBiCG:  Solving for Ux, Initial residual = 0.027939, Final residual = 5.22238e-06, No Iterations 2
DILUPBiCG:  Solving for Uy, Initial residual = 0.0411181, Final residual = 0.000260921, No Iterations 1
DICPCG:  Solving for p_rgh, Initial residual = 0.0519668, Final residual = 0.000324819, No Iterations 10
time step continuity errors : sum local = 0.000735111, global = 2.60727e-16, cumulative = 7.53782e-16
DILUPBiCG:  Solving for epsilon, Initial residual = 0.0222394, Final residual = 2.0027e-05, No Iterations 2
DILUPBiCG:  Solving for k, Initial residual = 0.047799, Final residual = 6.83574e-05, No Iterations 2
DICPCG:  Solving for G, Initial residual = 0.00115295, Final residual = 3.51339e-05, No Iterations 13
Before T+T solve
BiCG:  Solving for T+T, Initial residual = 0.00138913, Final residual = 6.80138e-07, No Iterations 6
Tres = -0.91541
TsRes = -0.0105929
ExecutionTime = 0.07 s



Wall heat fluxes [W]
movingWall 0.0383566 3.81546e-16 0.909889 0.948246
left 0.0339288 -3.4686e-17 0.904336 0.938264
right -0.647351 1.0721e-14 -2.03339 -2.68074
bottom -0.340344 0 0.219167 -0.121178
frontAndBack 0 0 0 0
sum -0.91541 1.10679e-14 -3.34508e-08 -0.91541


Wall heat fluxes [W]
topAndBottom 0 0 0 0
left 2.67984 0 0 2.67984
right -2.69043 0 0 -2.69043
frontAndBack 0 0 0 0
sum -0.0105929 0 0 -0.0105929

Time = 18

DILUPBiCG:  Solving for Ux, Initial residual = 0.0264466, Final residual = 4.56689e-06, No Iterations 2
DILUPBiCG:  Solving for Uy, Initial residual = 0.040502, Final residual = 0.000277464, No Iterations 1
DICPCG:  Solving for p_rgh, Initial residual = 0.0495621, Final residual = 0.000283592, No Iterations 10
time step continuity errors : sum local = 0.000665724, global = -1.34996e-16, cumulative = 6.18786e-16
DILUPBiCG:  Solving for epsilon, Initial residual = 0.0213538, Final residual = 1.76787e-05, No Iterations 2
DILUPBiCG:  Solving for k, Initial residual = 0.0477833, Final residual = 7.21399e-05, No Iterations 2
DICPCG:  Solving for G, Initial residual = 0.00101658, Final residual = 3.55559e-05, No Iterations 13
Before T+T solve
BiCG:  Solving for T+T, Initial residual = 0.00139512, Final residual = 6.86129e-07, No Iterations 6
Tres = -0.908205
TsRes = -0.00803885
ExecutionTime = 0.07 s



Wall heat fluxes [W]
movingWall 0.0413377 -1.7343e-17 0.911419 0.952756
left 0.0348877 1.7343e-17 0.90586 0.940747
right -0.646436 -6.85565e-15 -2.03431 -2.68074
bottom -0.337995 0 0.217028 -0.120967
frontAndBack 0 0 0 0
sum -0.908205 -6.85565e-15 -4.23986e-08 -0.908206


Wall heat fluxes [W]
topAndBottom 0 0 0 0
left 2.6796 0 0 2.6796
right -2.68764 0 0 -2.68764
frontAndBack 0 0 0 0
sum -0.00803885 0 0 -0.00803885

Time = 19

DILUPBiCG:  Solving for Ux, Initial residual = 0.0251019, Final residual = 4.04299e-06, No Iterations 2
DILUPBiCG:  Solving for Uy, Initial residual = 0.0401653, Final residual = 0.000298462, No Iterations 1
DICPCG:  Solving for p_rgh, Initial residual = 0.0466064, Final residual = 0.000242895, No Iterations 10
time step continuity errors : sum local = 0.000579255, global = -3.44637e-16, cumulative = 2.7415e-16
DILUPBiCG:  Solving for epsilon, Initial residual = 0.0206861, Final residual = 1.8288e-05, No Iterations 2
DILUPBiCG:  Solving for k, Initial residual = 0.0478927, Final residual = 7.62685e-05, No Iterations 2
DICPCG:  Solving for G, Initial residual = 0.000902312, Final residual = 8.41298e-05, No Iterations 12
Before T+T solve
BiCG:  Solving for T+T, Initial residual = 0.00140238, Final residual = 7.77809e-07, No Iterations 6
Tres = -0.90014
TsRes = -0.00638589
ExecutionTime = 0.08 s



Wall heat fluxes [W]
movingWall 0.0448131 -2.77488e-16 0.912704 0.957517
left 0.0364086 3.4686e-17 0.907141 0.943549
right -0.645592 -1.54386e-14 -2.03483 -2.68043
bottom -0.33577 0 0.21499 -0.12078
frontAndBack 0 0 0 0
sum -0.90014 -1.56814e-14 -1.22026e-07 -0.90014


Wall heat fluxes [W]
topAndBottom 0 0 0 0
left 2.6791 0 0 2.6791
right -2.68549 0 0 -2.68549
frontAndBack 0 0 0 0
sum -0.00638589 0 0 -0.00638589

Time = 20

DILUPBiCG:  Solving for Ux, Initial residual = 0.0238903, Final residual = 3.63236e-06, No Iterations 2
DILUPBiCG:  Solving for Uy, Initial residual = 0.0399991, Final residual = 0.000309435, No Iterations 1
DICPCG:  Solving for p_rgh, Initial residual = 0.0440173, Final residual = 0.000221959, No Iterations 10
time step continuity errors : sum local = 0.000552583, global = -2.34522e-16, cumulative = 3.96276e-17
DILUPBiCG:  Solving for epsilon, Initial residual = 0.0205778, Final residual = 2.02337e-05, No Iterations 2
DILUPBiCG:  Solving for k, Initial residual = 0.0481528, Final residual = 8.086e-05, No Iterations 2
DICPCG:  Solving for G, Initial residual = 0.000890384, Final residual = 7.72453e-05, No Iterations 12
Before T+T solve
BiCG:  Solving for T+T, Initial residual = 0.00140744, Final residual = 8.67365e-07, No Iterations 6
Tres = -0.89086
TsRes = -0.00533761
ExecutionTime = 0.08 s



Wall heat fluxes [W]
movingWall 0.0489128 2.08116e-16 0.913803 0.962716
left 0.0386634 -3.4686e-17 0.908235 0.946899
right -0.644778 -1.32945e-14 -2.03512 -2.6799
bottom -0.333658 0 0.213084 -0.120574
frontAndBack 0 0 0 0
sum -0.89086 -1.31211e-14 -9.82402e-08 -0.89086


Wall heat fluxes [W]
topAndBottom 0 0 0 0
left 2.67841 0 0 2.67841
right -2.68375 0 0 -2.68375
frontAndBack 0 0 0 0
sum -0.00533761 0 0 -0.00533761

Time = 21

DILUPBiCG:  Solving for Ux, Initial residual = 0.0225523, Final residual = 3.28815e-06, No Iterations 2
DILUPBiCG:  Solving for Uy, Initial residual = 0.0396885, Final residual = 0.000315648, No Iterations 1
DICPCG:  Solving for p_rgh, Initial residual = 0.0422044, Final residual = 0.000274379, No Iterations 10
time step continuity errors : sum local = 0.000694037, global = -1.69274e-16, cumulative = -1.29647e-16
DILUPBiCG:  Solving for epsilon, Initial residual = 0.0205785, Final residual = 2.19838e-05, No Iterations 2
DILUPBiCG:  Solving for k, Initial residual = 0.0485976, Final residual = 8.64632e-05, No Iterations 2
DICPCG:  Solving for G, Initial residual = 0.000821332, Final residual = 7.25054e-05, No Iterations 12
Before T+T solve
BiCG:  Solving for T+T, Initial residual = 0.00140941, Final residual = 9.30346e-07, No Iterations 6
Tres = -0.880114
TsRes = -0.00472519
ExecutionTime = 0.08 s



Wall heat fluxes [W]
movingWall 0.0536904 -6.9372e-17 0.914779 0.96847
left 0.0418268 0 0.909208 0.951034
right -0.643959 -7.28985e-15 -2.03526 -2.67922
bottom -0.331672 0 0.211271 -0.120401
frontAndBack 0 0 0 0
sum -0.880114 -7.35922e-15 -9.24613e-08 -0.880114


Wall heat fluxes [W]
topAndBottom 0 0 0 0
left 2.67755 0 0 2.67755
right -2.68227 0 0 -2.68227
frontAndBack 0 0 0 0
sum -0.00472519 0 0 -0.00472519

Time = 22

DILUPBiCG:  Solving for Ux, Initial residual = 0.0211017, Final residual = 3.1486e-06, No Iterations 2
DILUPBiCG:  Solving for Uy, Initial residual = 0.0390134, Final residual = 0.000314666, No Iterations 1
DICPCG:  Solving for p_rgh, Initial residual = 0.0417115, Final residual = 0.00029579, No Iterations 10
time step continuity errors : sum local = 0.000766551, global = -5.50571e-17, cumulative = -1.84704e-16
DILUPBiCG:  Solving for epsilon, Initial residual = 0.0204846, Final residual = 2.34345e-05, No Iterations 2
DILUPBiCG:  Solving for k, Initial residual = 0.0491553, Final residual = 9.16261e-05, No Iterations 2
DICPCG:  Solving for G, Initial residual = 0.000775775, Final residual = 7.50607e-05, No Iterations 12
Before T+T solve
BiCG:  Solving for T+T, Initial residual = 0.00140702, Final residual = 9.47119e-07, No Iterations 6
Tres = -0.867937
TsRes = -0.00439432
ExecutionTime = 0.09 s



Wall heat fluxes [W]
movingWall 0.0591171 5.54976e-16 0.915654 0.974771
left 0.0459912 0 0.910078 0.956069
right -0.643104 -5.99838e-15 -2.03532 -2.67843
bottom -0.329942 0 0.20959 -0.120352
frontAndBack 0 0 0 0
sum -0.867937 -5.4434e-15 -1.13374e-07 -0.867937


Wall heat fluxes [W]
topAndBottom 0 0 0 0
left 2.67655 0 0 2.67655
right -2.68095 0 0 -2.68095
frontAndBack 0 0 0 0
sum -0.00439432 0 0 -0.00439432

Time = 23

DILUPBiCG:  Solving for Ux, Initial residual = 0.0196719, Final residual = 3.13157e-06, No Iterations 2
DILUPBiCG:  Solving for Uy, Initial residual = 0.0382373, Final residual = 0.000323056, No Iterations 1
DICPCG:  Solving for p_rgh, Initial residual = 0.0403623, Final residual = 0.000351369, No Iterations 10
time step continuity errors : sum local = 0.000969997, global = 2.5411e-17, cumulative = -1.59293e-16
DILUPBiCG:  Solving for epsilon, Initial residual = 0.0200392, Final residual = 2.46778e-05, No Iterations 2
DILUPBiCG:  Solving for k, Initial residual = 0.0494062, Final residual = 9.59759e-05, No Iterations 2
DICPCG:  Solving for G, Initial residual = 0.000700743, Final residual = 2.65017e-05, No Iterations 13
Before T+T solve
BiCG:  Solving for T+T, Initial residual = 0.00139982, Final residual = 9.47362e-07, No Iterations 6
Tres = -0.854126
TsRes = -0.00420876
ExecutionTime = 0.09 s



Wall heat fluxes [W]
movingWall 0.0651622 6.9372e-16 0.916399 0.981561
left 0.0512784 2.08116e-16 0.910819 0.962097
right -0.642187 -2.14547e-15 -2.03542 -2.67761
bottom -0.328379 0 0.208202 -0.120177
frontAndBack 0 0 0 0
sum -0.854126 -1.24364e-15 -3.0288e-08 -0.854126


Wall heat fluxes [W]
topAndBottom 0 0 0 0
left 2.6755 0 0 2.6755
right -2.6797 0 0 -2.6797
frontAndBack 0 0 0 0
sum -0.00420876 0 0 -0.00420876

Time = 24

DILUPBiCG:  Solving for Ux, Initial residual = 0.0182421, Final residual = 3.24774e-06, No Iterations 2
DILUPBiCG:  Solving for Uy, Initial residual = 0.0369834, Final residual = 0.000330564, No Iterations 1
DICPCG:  Solving for p_rgh, Initial residual = 0.03827, Final residual = 0.000271569, No Iterations 11
time step continuity errors : sum local = 0.000798812, global = -7.19978e-17, cumulative = -2.31291e-16
DILUPBiCG:  Solving for epsilon, Initial residual = 0.0193194, Final residual = 2.517e-05, No Iterations 2
DILUPBiCG:  Solving for k, Initial residual = 0.0494965, Final residual = 9.92071e-05, No Iterations 2
DICPCG:  Solving for G, Initial residual = 0.000643089, Final residual = 2.49518e-05, No Iterations 13
Before T+T solve
BiCG:  Solving for T+T, Initial residual = 0.00138882, Final residual = 9.39535e-07, No Iterations 6
Tres = -0.838527
TsRes = -0.00417646
ExecutionTime = 0.09 s



Wall heat fluxes [W]
movingWall 0.0717737 2.77488e-16 0.917109 0.988883
left 0.057752 2.42802e-16 0.911525 0.969277
right -0.641197 -5.14492e-15 -2.0355 -2.6767
bottom -0.326856 0 0.206865 -0.119991
frontAndBack 0 0 0 0
sum -0.838527 -4.62463e-15 -3.42337e-08 -0.838527


Wall heat fluxes [W]
topAndBottom 0 0 0 0
left 2.67432 0 0 2.67432
right -2.6785 0 0 -2.6785
frontAndBack 0 0 0 0
sum -0.00417646 0 0 -0.00417646

Time = 25

DILUPBiCG:  Solving for Ux, Initial residual = 0.0168682, Final residual = 3.4264e-06, No Iterations 2
DILUPBiCG:  Solving for Uy, Initial residual = 0.0355757, Final residual = 0.000335935, No Iterations 1
DICPCG:  Solving for p_rgh, Initial residual = 0.0366851, Final residual = 0.000321568, No Iterations 11
time step continuity errors : sum local = 0.000966525, global = -2.78991e-16, cumulative = -5.10282e-16
DILUPBiCG:  Solving for epsilon, Initial residual = 0.0180903, Final residual = 2.46389e-05, No Iterations 2
DILUPBiCG:  Solving for k, Initial residual = 0.0491523, Final residual = 0.000100571, No Iterations 2
DICPCG:  Solving for G, Initial residual = 0.000601284, Final residual = 2.28454e-05, No Iterations 13
Before T+T solve
BiCG:  Solving for T+T, Initial residual = 0.00137098, Final residual = 9.28147e-07, No Iterations 6
Tres = -0.821187
TsRes = -0.00422119
ExecutionTime = 0.09 s



Wall heat fluxes [W]
movingWall 0.0788981 -2.77488e-16 0.917799 0.996697
left 0.065435 4.50918e-16 0.912211 0.977646
right -0.640127 -1.28678e-14 -2.03557 -2.6757
bottom -0.325393 0 0.205561 -0.119832
frontAndBack 0 0 0 0
sum -0.821187 -1.26943e-14 -3.10364e-08 -0.821187


Wall heat fluxes [W]
topAndBottom 0 0 0 0
left 2.67308 0 0 2.67308
right -2.6773 0 0 -2.6773
frontAndBack 0 0 0 0
sum -0.00422119 0 0 -0.00422119

Time = 26

DILUPBiCG:  Solving for Ux, Initial residual = 0.0155596, Final residual = 3.54959e-06, No Iterations 2
DILUPBiCG:  Solving for Uy, Initial residual = 0.0339929, Final residual = 0.000338095, No Iterations 1
DICPCG:  Solving for p_rgh, Initial residual = 0.033712, Final residual = 0.00016804, No Iterations 12
time step continuity errors : sum local = 0.000505224, global = 1.14349e-16, cumulative = -3.95933e-16
DILUPBiCG:  Solving for epsilon, Initial residual = 0.016715, Final residual = 2.41807e-05, No Iterations 2
DILUPBiCG:  Solving for k, Initial residual = 0.04829, Final residual = 0.000100471, No Iterations 2
DICPCG:  Solving for G, Initial residual = 0.000562913, Final residual = 2.07765e-05, No Iterations 13
Before T+T solve
BiCG:  Solving for T+T, Initial residual = 0.00134906, Final residual = 9.15637e-07, No Iterations 6
Tres = -0.802202
TsRes = -0.00428295
ExecutionTime = 0.1 s



Wall heat fluxes [W]
movingWall 0.0864544 2.77488e-16 0.918464 1.00492
left 0.0742961 -3.81546e-16 0.912872 0.987169
right -0.638983 4.29151e-15 -2.03567 -2.67465
bottom -0.32397 0 0.204329 -0.119641
frontAndBack 0 0 0 0
sum -0.802202 4.18746e-15 -3.05612e-08 -0.802202


Wall heat fluxes [W]
topAndBottom 0 0 0 0
left 2.6718 0 0 2.6718
right -2.67608 0 0 -2.67608
frontAndBack 0 0 0 0
sum -0.00428295 0 0 -0.00428295

Time = 27

DILUPBiCG:  Solving for Ux, Initial residual = 0.0143962, Final residual = 4.09487e-06, No Iterations 2
DILUPBiCG:  Solving for Uy, Initial residual = 0.0319647, Final residual = 3.06588e-06, No Iterations 2
DICPCG:  Solving for p_rgh, Initial residual = 0.0302947, Final residual = 0.000157575, No Iterations 12
time step continuity errors : sum local = 0.000481594, global = 1.37643e-17, cumulative = -3.82168e-16
DILUPBiCG:  Solving for epsilon, Initial residual = 0.0153976, Final residual = 2.3693e-05, No Iterations 2
DILUPBiCG:  Solving for k, Initial residual = 0.046982, Final residual = 9.91076e-05, No Iterations 2
DICPCG:  Solving for G, Initial residual = 0.000511258, Final residual = 1.83062e-05, No Iterations 13
Before T+T solve
BiCG:  Solving for T+T, Initial residual = 0.00132068, Final residual = 8.92912e-07, No Iterations 6
Tres = -0.781744
TsRes = -0.00434737
ExecutionTime = 0.1 s



Wall heat fluxes [W]
movingWall 0.094362 2.77488e-16 0.919128 1.01349
left 0.084241 6.9372e-17 0.913533 0.997774
right -0.637773 -2.14583e-15 -2.03577 -2.67355
bottom -0.322574 0 0.203114 -0.11946
frontAndBack 0 0 0 0
sum -0.781744 -1.79897e-15 -2.36232e-08 -0.781744


Wall heat fluxes [W]
topAndBottom 0 0 0 0
left 2.6705 0 0 2.6705
right -2.67484 0 0 -2.67484
frontAndBack 0 0 0 0
sum -0.00434737 0 0 -0.00434737

Time = 28

DILUPBiCG:  Solving for Ux, Initial residual = 0.0132598, Final residual = 5.67691e-06, No Iterations 2
DILUPBiCG:  Solving for Uy, Initial residual = 0.0298161, Final residual = 3.02439e-06, No Iterations 2
DICPCG:  Solving for p_rgh, Initial residual = 0.0275286, Final residual = 0.000141357, No Iterations 12
time step continuity errors : sum local = 0.00043692, global = -2.90109e-16, cumulative = -6.72277e-16
DILUPBiCG:  Solving for epsilon, Initial residual = 0.0139909, Final residual = 2.33746e-05, No Iterations 2
DILUPBiCG:  Solving for k, Initial residual = 0.0452578, Final residual = 9.68982e-05, No Iterations 2
DICPCG:  Solving for G, Initial residual = 0.000465082, Final residual = 1.60084e-05, No Iterations 13
Before T+T solve
BiCG:  Solving for T+T, Initial residual = 0.00128594, Final residual = 8.83983e-07, No Iterations 6
Tres = -0.760053
TsRes = -0.00438278
ExecutionTime = 0.1 s



Wall heat fluxes [W]
movingWall 0.102518 1.38744e-16 0.919784 1.0223
left 0.0951204 7.28406e-16 0.914187 1.00931
right -0.636512 -1.75836e-14 -2.0359 -2.67242
bottom -0.321179 0 0.201934 -0.119246
frontAndBack 0 0 0 0
sum -0.760053 -1.67165e-14 -1.80202e-08 -0.760053


Wall heat fluxes [W]
topAndBottom 0 0 0 0
left 2.66921 0 0 2.66921
right -2.67359 0 0 -2.67359
frontAndBack 0 0 0 0
sum -0.00438278 0 0 -0.00438278

Time = 29

DILUPBiCG:  Solving for Ux, Initial residual = 0.0122292, Final residual = 1.29517e-05, No Iterations 2
DILUPBiCG:  Solving for Uy, Initial residual = 0.0273492, Final residual = 2.91431e-06, No Iterations 2
DICPCG:  Solving for p_rgh, Initial residual = 0.0251207, Final residual = 0.000209495, No Iterations 11
time step continuity errors : sum local = 0.000665771, global = 3.73224e-17, cumulative = -6.34955e-16
DILUPBiCG:  Solving for epsilon, Initial residual = 0.0129495, Final residual = 2.4182e-05, No Iterations 2
DILUPBiCG:  Solving for k, Initial residual = 0.0433838, Final residual = 9.32235e-05, No Iterations 2
DICPCG:  Solving for G, Initial residual = 0.000416773, Final residual = 1.31405e-05, No Iterations 13
Before T+T solve
BiCG:  Solving for T+T, Initial residual = 0.00124374, Final residual = 8.94834e-07, No Iterations 6
Tres = -0.737429
TsRes = -0.00439198
ExecutionTime = 0.11 s



Wall heat fluxes [W]
movingWall 0.110813 -1.38744e-16 0.920449 1.03126
left 0.106741 -4.16232e-16 0.914851 1.02159
right -0.635217 1.71685e-15 -2.03604 -2.67126
bottom -0.319766 0 0.200737 -0.119029
frontAndBack 0 0 0 0
sum -0.737429 1.16187e-15 -8.90093e-09 -0.737429


Wall heat fluxes [W]
topAndBottom 0 0 0 0
left 2.66794 0 0 2.66794
right -2.67233 0 0 -2.67233
frontAndBack 0 0 0 0
sum -0.00439198 0 0 -0.00439198

Time = 30

DILUPBiCG:  Solving for Ux, Initial residual = 0.0112887, Final residual = 3.21494e-05, No Iterations 2
DILUPBiCG:  Solving for Uy, Initial residual = 0.024729, Final residual = 2.73805e-06, No Iterations 2
DICPCG:  Solving for p_rgh, Initial residual = 0.0231577, Final residual = 0.000122227, No Iterations 11
time step continuity errors : sum local = 0.000380699, global = 5.61159e-17, cumulative = -5.78839e-16
DILUPBiCG:  Solving for epsilon, Initial residual = 0.0120852, Final residual = 2.7871e-05, No Iterations 2
DILUPBiCG:  Solving for k, Initial residual = 0.0411514, Final residual = 8.95873e-05, No Iterations 2
DICPCG:  Solving for G, Initial residual = 0.000374077, Final residual = 2.34556e-05, No Iterations 11
Before T+T solve
BiCG:  Solving for T+T, Initial residual = 0.00119993, Final residual = 9.15616e-07, No Iterations 6
Tres = -0.714279
TsRes = -0.00435666
ExecutionTime = 0.11 s



Wall heat fluxes [W]
movingWall 0.119146 0 0.921121 1.04027
left 0.118883 -1.38744e-16 0.915522 1.03441
right -0.633909 2.57605e-15 -2.03617 -2.67008
bottom -0.3184 0 0.19953 -0.11887
frontAndBack 0 0 0 0
sum -0.714279 2.43731e-15 -1.09241e-08 -0.714279


Wall heat fluxes [W]
topAndBottom 0 0 0 0
left 2.66671 0 0 2.66671
right -2.67107 0 0 -2.67107
frontAndBack 0 0 0 0
sum -0.00435666 0 0 -0.00435666

Time = 31

DILUPBiCG:  Solving for Ux, Initial residual = 0.0104791, Final residual = 8.30902e-06, No Iterations 2
DILUPBiCG:  Solving for Uy, Initial residual = 0.0220525, Final residual = 2.66242e-06, No Iterations 2
DICPCG:  Solving for p_rgh, Initial residual = 0.0214124, Final residual = 9.22208e-05, No Iterations 11
time step continuity errors : sum local = 0.000283418, global = 2.64698e-18, cumulative = -5.76192e-16
DILUPBiCG:  Solving for epsilon, Initial residual = 0.0114683, Final residual = 4.21296e-05, No Iterations 2
DILUPBiCG:  Solving for k, Initial residual = 0.0389912, Final residual = 9.23449e-05, No Iterations 2
DICPCG:  Solving for G, Initial residual = 0.000355277, Final residual = 2.11993e-05, No Iterations 11
Before T+T solve
BiCG:  Solving for T+T, Initial residual = 0.00115774, Final residual = 9.29191e-07, No Iterations 6
Tres = -0.690829
TsRes = -0.00426254
ExecutionTime = 0.11 s



Wall heat fluxes [W]
movingWall 0.127423 8.32464e-16 0.921766 1.04919
left 0.131313 1.04058e-15 0.916169 1.04748
right -0.632604 -1.72173e-15 -2.03634 -2.66894
bottom -0.316962 0 0.198402 -0.11856
frontAndBack 0 0 0 0
sum -0.690829 1.51313e-16 -7.05708e-08 -0.690829


Wall heat fluxes [W]
topAndBottom 0 0 0 0
left 2.66557 0 0 2.66557
right -2.66983 0 0 -2.66983
frontAndBack 0 0 0 0
sum -0.00426254 0 0 -0.00426254

Time = 32

DILUPBiCG:  Solving for Ux, Initial residual = 0.00976309, Final residual = 5.4187e-06, No Iterations 2
DILUPBiCG:  Solving for Uy, Initial residual = 0.0195048, Final residual = 2.70571e-06, No Iterations 2
DICPCG:  Solving for p_rgh, Initial residual = 0.0198213, Final residual = 0.000151595, No Iterations 7
time step continuity errors : sum local = 0.000650141, global = 8.57621e-17, cumulative = -4.9043e-16
DILUPBiCG:  Solving for epsilon, Initial residual = 0.01087, Final residual = 3.49134e-07, No Iterations 3
DILUPBiCG:  Solving for k, Initial residual = 0.0367492, Final residual = 6.66912e-05, No Iterations 2
DICPCG:  Solving for G, Initial residual = 0.000378314, Final residual = 3.08332e-05, No Iterations 12
Before T+T solve
BiCG:  Solving for T+T, Initial residual = 0.00111447, Final residual = 9.51145e-07, No Iterations 6
Tres = -0.667338
TsRes = -0.00418716
ExecutionTime = 0.12 s



Wall heat fluxes [W]
movingWall 0.135561 1.38744e-15 0.922461 1.05802
left 0.1438 -3.4686e-17 0.916865 1.06066
right -0.631318 3.43036e-15 -2.03644 -2.66776
bottom -0.315381 0 0.197118 -0.118263
frontAndBack 0 0 0 0
sum -0.667338 4.78311e-15 -1.9646e-08 -0.667338


Wall heat fluxes [W]
topAndBottom 0 0 0 0
left 2.66442 0 0 2.66442
right -2.66861 0 0 -2.66861
frontAndBack 0 0 0 0
sum -0.00418716 0 0 -0.00418716

Time = 33

DILUPBiCG:  Solving for Ux, Initial residual = 0.00909246, Final residual = 4.30729e-06, No Iterations 2
DILUPBiCG:  Solving for Uy, Initial residual = 0.0172548, Final residual = 2.72927e-06, No Iterations 2
DICPCG:  Solving for p_rgh, Initial residual = 0.0185058, Final residual = 0.000175018, No Iterations 7
time step continuity errors : sum local = 0.00078414, global = 5.18808e-17, cumulative = -4.38549e-16
DILUPBiCG:  Solving for epsilon, Initial residual = 0.0103467, Final residual = 1.96227e-05, No Iterations 2
DILUPBiCG:  Solving for k, Initial residual = 0.0351104, Final residual = 6.55376e-05, No Iterations 2
DICPCG:  Solving for G, Initial residual = 0.0004006, Final residual = 2.7348e-05, No Iterations 12
Before T+T solve
BiCG:  Solving for T+T, Initial residual = 0.00107182, Final residual = 9.56431e-07, No Iterations 6
Tres = -0.644072
TsRes = -0.00409933
ExecutionTime = 0.12 s



Wall heat fluxes [W]
movingWall 0.143491 1.10995e-15 0.923183 1.06667
left 0.15611 1.04058e-15 0.917589 1.0737
right -0.630065 -4.27642e-16 -2.03651 -2.66657
bottom -0.313609 0 0.195735 -0.117873
frontAndBack 0 0 0 0
sum -0.644072 1.72289e-15 6.18115e-09 -0.644072


Wall heat fluxes [W]
topAndBottom 0 0 0 0
left 2.66331 0 0 2.66331
right -2.66741 0 0 -2.66741
frontAndBack 0 0 0 0
sum -0.00409933 0 0 -0.00409933

Time = 34

DILUPBiCG:  Solving for Ux, Initial residual = 0.00852049, Final residual = 3.7553e-06, No Iterations 2
DILUPBiCG:  Solving for Uy, Initial residual = 0.0153221, Final residual = 4.18091e-06, No Iterations 2
DICPCG:  Solving for p_rgh, Initial residual = 0.0175182, Final residual = 0.000126953, No Iterations 7
time step continuity errors : sum local = 0.000580892, global = 8.73503e-18, cumulative = -4.29814e-16
DILUPBiCG:  Solving for epsilon, Initial residual = 0.0099301, Final residual = 9.04324e-06, No Iterations 2
DILUPBiCG:  Solving for k, Initial residual = 0.0335116, Final residual = 6.09644e-05, No Iterations 2
DICPCG:  Solving for G, Initial residual = 0.000430302, Final residual = 3.2031e-05, No Iterations 12
Before T+T solve
BiCG:  Solving for T+T, Initial residual = 0.00103348, Final residual = 9.58226e-07, No Iterations 6
Tres = -0.621238
TsRes = -0.00404284
ExecutionTime = 0.12 s



Wall heat fluxes [W]
movingWall 0.151161 0 0.923969 1.07513
left 0.168047 3.4686e-16 0.918379 1.08643
right -0.628853 8.52898e-16 -2.03649 -2.66535
bottom -0.311594 0 0.194146 -0.117448
frontAndBack 0 0 0 0
sum -0.621238 1.19976e-15 4.15215e-08 -0.621238


Wall heat fluxes [W]
topAndBottom 0 0 0 0
left 2.66219 0 0 2.66219
right -2.66623 0 0 -2.66623
frontAndBack 0 0 0 0
sum -0.00404284 0 0 -0.00404284

Time = 35

DILUPBiCG:  Solving for Ux, Initial residual = 0.00797748, Final residual = 7.14822e-05, No Iterations 1
DILUPBiCG:  Solving for Uy, Initial residual = 0.0138207, Final residual = 6.30741e-06, No Iterations 2
DICPCG:  Solving for p_rgh, Initial residual = 0.0163886, Final residual = 0.000151976, No Iterations 6
time step continuity errors : sum local = 0.000468643, global = 2.91168e-16, cumulative = -1.38646e-16
DILUPBiCG:  Solving for epsilon, Initial residual = 0.00952371, Final residual = 6.40322e-06, No Iterations 2
DILUPBiCG:  Solving for k, Initial residual = 0.0319617, Final residual = 5.86707e-05, No Iterations 2
DICPCG:  Solving for G, Initial residual = 0.00046787, Final residual = 3.83947e-05, No Iterations 12
Before T+T solve
BiCG:  Solving for T+T, Initial residual = 0.00100439, Final residual = 9.5644e-07, No Iterations 6
Tres = -0.59904
TsRes = -0.00402023
ExecutionTime = 0.12 s



Wall heat fluxes [W]
movingWall 0.158532 1.38744e-15 0.92482 1.08335
left 0.179437 -1.04058e-15 0.919236 1.09867
right -0.627684 1.4587e-14 -2.0364 -2.66408
bottom -0.309325 0 0.192344 -0.116981
frontAndBack 0 0 0 0
sum -0.59904 1.49339e-14 3.65043e-08 -0.599039


Wall heat fluxes [W]
topAndBottom 0 0 0 0
left 2.66104 0 0 2.66104
right -2.66506 0 0 -2.66506
frontAndBack 0 0 0 0
sum -0.00402023 0 0 -0.00402023

Time = 36

DILUPBiCG:  Solving for Ux, Initial residual = 0.00744469, Final residual = 6.5848e-05, No Iterations 1
DILUPBiCG:  Solving for Uy, Initial residual = 0.012518, Final residual = 3.78375e-06, No Iterations 2
DICPCG:  Solving for p_rgh, Initial residual = 0.0155268, Final residual = 5.4187e-05, No Iterations 12
time step continuity errors : sum local = 0.000166141, global = -2.48552e-16, cumulative = -3.87198e-16
DILUPBiCG:  Solving for epsilon, Initial residual = 0.00913305, Final residual = 6.37497e-06, No Iterations 2
DILUPBiCG:  Solving for k, Initial residual = 0.0304103, Final residual = 6.44101e-05, No Iterations 2
DICPCG:  Solving for G, Initial residual = 0.000510769, Final residual = 4.55079e-05, No Iterations 12
Before T+T solve
BiCG:  Solving for T+T, Initial residual = 0.000976734, Final residual = 9.66302e-07, No Iterations 6
Tres = -0.577668
TsRes = -0.00405804
ExecutionTime = 0.12 s



Wall heat fluxes [W]
movingWall 0.165573 -8.32464e-16 0.925743 1.09132
left 0.190155 6.9372e-17 0.920166 1.11032
right -0.626551 -1.11594e-14 -2.03623 -2.66278
bottom -0.306845 0 0.190316 -0.116529
frontAndBack 0 0 0 0
sum -0.577668 -1.19225e-14 3.13527e-08 -0.577668


Wall heat fluxes [W]
topAndBottom 0 0 0 0
left 2.65983 0 0 2.65983
right -2.66389 0 0 -2.66389
frontAndBack 0 0 0 0
sum -0.00405804 0 0 -0.00405804

Time = 37

DILUPBiCG:  Solving for Ux, Initial residual = 0.00693207, Final residual = 3.15581e-06, No Iterations 2
DILUPBiCG:  Solving for Uy, Initial residual = 0.0116697, Final residual = 2.55661e-06, No Iterations 2
DICPCG:  Solving for p_rgh, Initial residual = 0.015267, Final residual = 4.86804e-05, No Iterations 12
time step continuity errors : sum local = 0.000149938, global = -1.42937e-16, cumulative = -5.30135e-16
DILUPBiCG:  Solving for epsilon, Initial residual = 0.00876638, Final residual = 6.60277e-06, No Iterations 2
DILUPBiCG:  Solving for k, Initial residual = 0.028777, Final residual = 8.19598e-05, No Iterations 2
DICPCG:  Solving for G, Initial residual = 0.000543245, Final residual = 5.0135e-05, No Iterations 12
Before T+T solve
BiCG:  Solving for T+T, Initial residual = 0.000951364, Final residual = 6.81911e-07, No Iterations 7
Tres = -0.55723
TsRes = -0.00405239
ExecutionTime = 0.13 s



Wall heat fluxes [W]
movingWall 0.172271 -2.2199e-15 0.926717 1.09899
left 0.200098 1.17932e-15 0.921147 1.12124
right -0.625445 -6.01121e-15 -2.036 -2.66144
bottom -0.304154 0 0.188134 -0.116019
frontAndBack 0 0 0 0
sum -0.55723 -7.05179e-15 3.66277e-08 -0.55723


Wall heat fluxes [W]
topAndBottom 0 0 0 0
left 2.65858 0 0 2.65858
right -2.66263 0 0 -2.66263
frontAndBack 0 0 0 0
sum -0.00405239 0 0 -0.00405239

Time = 38

DILUPBiCG:  Solving for Ux, Initial residual = 0.00649674, Final residual = 3.10205e-06, No Iterations 2
DILUPBiCG:  Solving for Uy, Initial residual = 0.0111991, Final residual = 2.00695e-06, No Iterations 2
DICPCG:  Solving for p_rgh, Initial residual = 0.0152421, Final residual = 0.000137549, No Iterations 11
time step continuity errors : sum local = 0.000421544, global = 2.71315e-16, cumulative = -2.5882e-16
DILUPBiCG:  Solving for epsilon, Initial residual = 0.00840475, Final residual = 6.62781e-06, No Iterations 2
DILUPBiCG:  Solving for k, Initial residual = 0.027134, Final residual = 0.000113183, No Iterations 2
DICPCG:  Solving for G, Initial residual = 0.000584579, Final residual = 5.53922e-05, No Iterations 12
Before T+T solve
BiCG:  Solving for T+T, Initial residual = 0.000927778, Final residual = 7.84223e-07, No Iterations 7
Tres = -0.537782
TsRes = -0.00416308
ExecutionTime = 0.13 s



Wall heat fluxes [W]
movingWall 0.178618 -1.66493e-15 0.927763 1.10638
left 0.209203 1.94242e-15 0.9222 1.1314
right -0.624354 1.50188e-14 -2.03571 -2.66006
bottom -0.301248 0 0.185747 -0.115502
frontAndBack 0 0 0 0
sum -0.537782 1.52963e-14 3.66936e-08 -0.537782


Wall heat fluxes [W]
topAndBottom 0 0 0 0
left 2.65724 0 0 2.65724
right -2.6614 0 0 -2.6614
frontAndBack 0 0 0 0
sum -0.00416308 0 0 -0.00416308

Time = 39

DILUPBiCG:  Solving for Ux, Initial residual = 0.00615916, Final residual = 3.40376e-06, No Iterations 2
DILUPBiCG:  Solving for Uy, Initial residual = 0.0109582, Final residual = 1.66615e-06, No Iterations 2
DICPCG:  Solving for p_rgh, Initial residual = 0.0152824, Final residual = 0.000128172, No Iterations 10
time step continuity errors : sum local = 0.000409644, global = -1.34731e-16, cumulative = -3.93551e-16
DILUPBiCG:  Solving for epsilon, Initial residual = 0.00806539, Final residual = 6.37132e-06, No Iterations 2
DILUPBiCG:  Solving for k, Initial residual = 0.0255233, Final residual = 0.000149682, No Iterations 2
DICPCG:  Solving for G, Initial residual = 0.000621375, Final residual = 5.9124e-05, No Iterations 12
Before T+T solve
BiCG:  Solving for T+T, Initial residual = 0.00090642, Final residual = 8.63182e-07, No Iterations 7
Tres = -0.519362
TsRes = -0.0043257
ExecutionTime = 0.13 s



Wall heat fluxes [W]
movingWall 0.18462 -8.32464e-16 0.928871 1.11349
left 0.217447 -5.54976e-16 0.923316 1.14076
right -0.623261 -3.85933e-15 -2.03537 -2.65863
bottom -0.298168 0 0.183182 -0.114985
frontAndBack 0 0 0 0
sum -0.519362 -5.24677e-15 4.55225e-08 -0.519362


Wall heat fluxes [W]
topAndBottom 0 0 0 0
left 2.65581 0 0 2.65581
right -2.66013 0 0 -2.66013
frontAndBack 0 0 0 0
sum -0.0043257 0 0 -0.0043257

Time = 40

DILUPBiCG:  Solving for Ux, Initial residual = 0.00594771, Final residual = 3.9502e-06, No Iterations 2
DILUPBiCG:  Solving for Uy, Initial residual = 0.0109544, Final residual = 1.48243e-06, No Iterations 2
DICPCG:  Solving for p_rgh, Initial residual = 0.0153681, Final residual = 6.16936e-05, No Iterations 10
time step continuity errors : sum local = 0.000194609, global = -6.65715e-17, cumulative = -4.60122e-16
DILUPBiCG:  Solving for epsilon, Initial residual = 0.00774221, Final residual = 5.98184e-06, No Iterations 2
DILUPBiCG:  Solving for k, Initial residual = 0.0239763, Final residual = 0.000181091, No Iterations 2
DICPCG:  Solving for G, Initial residual = 0.000653337, Final residual = 6.14852e-05, No Iterations 12
Before T+T solve
BiCG:  Solving for T+T, Initial residual = 0.000888528, Final residual = 3.03812e-07, No Iterations 8
Tres = -0.501979
TsRes = -0.00444483
ExecutionTime = 0.14 s



Wall heat fluxes [W]
movingWall 0.190278 2.77488e-16 0.930033 1.12031
left 0.224848 6.24348e-16 0.924487 1.14933
right -0.622147 -3.00222e-15 -2.035 -2.65715
bottom -0.294956 0 0.180481 -0.114475
frontAndBack 0 0 0 0
sum -0.501979 -2.10038e-15 5.13778e-08 -0.501978


Wall heat fluxes [W]
topAndBottom 0 0 0 0
left 2.65427 0 0 2.65427
right -2.65872 0 0 -2.65872
frontAndBack 0 0 0 0
sum -0.00444483 0 0 -0.00444483

Time = 41

DILUPBiCG:  Solving for Ux, Initial residual = 0.00590855, Final residual = 6.55697e-06, No Iterations 2
DILUPBiCG:  Solving for Uy, Initial residual = 0.0109885, Final residual = 1.36616e-06, No Iterations 2
DICPCG:  Solving for p_rgh, Initial residual = 0.0155401, Final residual = 4.46418e-05, No Iterations 10
time step continuity errors : sum local = 0.0001378, global = 9.34383e-17, cumulative = -3.66684e-16
DILUPBiCG:  Solving for epsilon, Initial residual = 0.00743612, Final residual = 5.55577e-06, No Iterations 2
DILUPBiCG:  Solving for k, Initial residual = 0.0225236, Final residual = 0.000192829, No Iterations 2
DICPCG:  Solving for G, Initial residual = 0.000679108, Final residual = 6.26645e-05, No Iterations 12
Before T+T solve
BiCG:  Solving for T+T, Initial residual = 0.000872256, Final residual = 3.12836e-07, No Iterations 8
Tres = -0.4856
TsRes = -0.00466814
ExecutionTime = 0.14 s



Wall heat fluxes [W]
movingWall 0.195605 -2.2199e-15 0.931241 1.12685
left 0.231435 -2.08116e-16 0.925704 1.15714
right -0.620997 9.00863e-15 -2.03462 -2.65562
bottom -0.291644 0 0.177678 -0.113966
frontAndBack 0 0 0 0
sum -0.4856 6.58061e-15 6.04579e-08 -0.4856


Wall heat fluxes [W]
topAndBottom 0 0 0 0
left 2.65264 0 0 2.65264
right -2.65731 0 0 -2.65731
frontAndBack 0 0 0 0
sum -0.00466814 0 0 -0.00466814

Time = 42

DILUPBiCG:  Solving for Ux, Initial residual = 0.00594331, Final residual = 7.01527e-09, No Iterations 3
DILUPBiCG:  Solving for Uy, Initial residual = 0.0110546, Final residual = 1.27462e-06, No Iterations 2
DICPCG:  Solving for p_rgh, Initial residual = 0.0158987, Final residual = 4.84423e-05, No Iterations 10
time step continuity errors : sum local = 0.000148252, global = 1.45187e-16, cumulative = -2.21497e-16
DILUPBiCG:  Solving for epsilon, Initial residual = 0.00713215, Final residual = 5.18397e-06, No Iterations 2
DILUPBiCG:  Solving for k, Initial residual = 0.0212672, Final residual = 0.000181015, No Iterations 2
DICPCG:  Solving for G, Initial residual = 0.000701789, Final residual = 6.29514e-05, No Iterations 12
Before T+T solve
BiCG:  Solving for T+T, Initial residual = 0.000858908, Final residual = 3.21086e-07, No Iterations 8
Tres = -0.470178
TsRes = -0.00493038
ExecutionTime = 0.14 s



Wall heat fluxes [W]
movingWall 0.200617 -8.32464e-16 0.93249 1.13311
left 0.237268 9.71208e-16 0.926962 1.16423
right -0.619794 6.01085e-15 -2.03425 -2.65404
bottom -0.288269 0 0.174793 -0.113476
frontAndBack 0 0 0 0
sum -0.470178 6.14959e-15 6.80622e-08 -0.470178


Wall heat fluxes [W]
topAndBottom 0 0 0 0
left 2.65091 0 0 2.65091
right -2.65584 0 0 -2.65584
frontAndBack 0 0 0 0
sum -0.00493038 0 0 -0.00493038

Time = 43

DILUPBiCG:  Solving for Ux, Initial residual = 0.00598219, Final residual = 4.83457e-06, No Iterations 2
DILUPBiCG:  Solving for Uy, Initial residual = 0.0111608, Final residual = 1.19642e-06, No Iterations 2
DICPCG:  Solving for p_rgh, Initial residual = 0.0164619, Final residual = 7.35922e-05, No Iterations 10
time step continuity errors : sum local = 0.000228176, global = 1.11835e-16, cumulative = -1.09662e-16
DILUPBiCG:  Solving for epsilon, Initial residual = 0.00683089, Final residual = 4.8654e-06, No Iterations 2
DILUPBiCG:  Solving for k, Initial residual = 0.0201562, Final residual = 0.000155987, No Iterations 2
DICPCG:  Solving for G, Initial residual = 0.00071705, Final residual = 6.11722e-05, No Iterations 12
Before T+T solve
BiCG:  Solving for T+T, Initial residual = 0.000847029, Final residual = 3.294e-07, No Iterations 8
Tres = -0.455654
TsRes = -0.00520372
ExecutionTime = 0.14 s



Wall heat fluxes [W]
movingWall 0.205332 -2.77488e-16 0.933769 1.1391
left 0.242416 1.2487e-15 0.928248 1.17066
right -0.618525 1.71995e-15 -2.03389 -2.65241
bottom -0.284876 0 0.17187 -0.113007
frontAndBack 0 0 0 0
sum -0.455654 2.69116e-15 7.56143e-08 -0.455653


Wall heat fluxes [W]
topAndBottom 0 0 0 0
left 2.64909 0 0 2.64909
right -2.6543 0 0 -2.6543
frontAndBack 0 0 0 0
sum -0.00520372 0 0 -0.00520372

Time = 44

DILUPBiCG:  Solving for Ux, Initial residual = 0.00600899, Final residual = 2.48273e-06, No Iterations 2
DILUPBiCG:  Solving for Uy, Initial residual = 0.0112292, Final residual = 1.13562e-06, No Iterations 2
DICPCG:  Solving for p_rgh, Initial residual = 0.0172393, Final residual = 0.000149216, No Iterations 5
time step continuity errors : sum local = 0.000747374, global = -1.37643e-16, cumulative = -2.47305e-16
DILUPBiCG:  Solving for epsilon, Initial residual = 0.00662582, Final residual = 4.61508e-06, No Iterations 2
DILUPBiCG:  Solving for k, Initial residual = 0.0192078, Final residual = 0.000127523, No Iterations 2
DICPCG:  Solving for G, Initial residual = 0.000725427, Final residual = 5.70559e-05, No Iterations 12
Before T+T solve
BiCG:  Solving for T+T, Initial residual = 0.000835427, Final residual = 3.38051e-07, No Iterations 8
Tres = -0.441967
TsRes = -0.0054705
ExecutionTime = 0.14 s



Wall heat fluxes [W]
movingWall 0.209769 -1.66493e-15 0.935066 1.14483
left 0.246928 9.71208e-16 0.929554 1.17648
right -0.617184 -4.72041e-15 -2.03356 -2.65074
bottom -0.28148 0 0.168942 -0.112538
frontAndBack 0 0 0 0
sum -0.441967 -5.41413e-15 8.08319e-08 -0.441967


Wall heat fluxes [W]
topAndBottom 0 0 0 0
left 2.6472 0 0 2.6472
right -2.65267 0 0 -2.65267
frontAndBack 0 0 0 0
sum -0.0054705 0 0 -0.0054705

Time = 45

DILUPBiCG:  Solving for Ux, Initial residual = 0.00598316, Final residual = 1.71181e-06, No Iterations 2
DILUPBiCG:  Solving for Uy, Initial residual = 0.0113294, Final residual = 1.08088e-06, No Iterations 2
DICPCG:  Solving for p_rgh, Initial residual = 0.0180338, Final residual = 0.000102821, No Iterations 10
time step continuity errors : sum local = 0.000323442, global = -1.56966e-16, cumulative = -4.04271e-16
DILUPBiCG:  Solving for epsilon, Initial residual = 0.00645207, Final residual = 4.36978e-06, No Iterations 2
DILUPBiCG:  Solving for k, Initial residual = 0.0183358, Final residual = 0.000108429, No Iterations 2
DICPCG:  Solving for G, Initial residual = 0.000731881, Final residual = 5.08605e-05, No Iterations 12
Before T+T solve
BiCG:  Solving for T+T, Initial residual = 0.000826903, Final residual = 3.52066e-07, No Iterations 8
Tres = -0.429023
TsRes = -0.0057244
ExecutionTime = 0.15 s



Wall heat fluxes [W]
movingWall 0.213953 -2.77488e-15 0.936382 1.15034
left 0.250972 2.08116e-16 0.930878 1.18185
right -0.615765 -4.72427e-15 -2.03327 -2.64903
bottom -0.278184 0 0.166008 -0.112176
frontAndBack 0 0 0 0
sum -0.429023 -7.29104e-15 8.09142e-08 -0.429023


Wall heat fluxes [W]
topAndBottom 0 0 0 0
left 2.64525 0 0 2.64525
right -2.65097 0 0 -2.65097
frontAndBack 0 0 0 0
sum -0.0057244 0 0 -0.0057244

Time = 46

DILUPBiCG:  Solving for Ux, Initial residual = 0.00605437, Final residual = 1.48037e-06, No Iterations 2
DILUPBiCG:  Solving for Uy, Initial residual = 0.0111568, Final residual = 1.04465e-06, No Iterations 2
DICPCG:  Solving for p_rgh, Initial residual = 0.0191179, Final residual = 0.000124397, No Iterations 5
time step continuity errors : sum local = 0.000601306, global = 4.60574e-17, cumulative = -3.58214e-16
DILUPBiCG:  Solving for epsilon, Initial residual = 0.00627719, Final residual = 4.15248e-06, No Iterations 2
DILUPBiCG:  Solving for k, Initial residual = 0.0176019, Final residual = 9.18893e-05, No Iterations 2
DICPCG:  Solving for G, Initial residual = 0.000709201, Final residual = 4.28206e-05, No Iterations 12
Before T+T solve
BiCG:  Solving for T+T, Initial residual = 0.000818041, Final residual = 3.65543e-07, No Iterations 8
Tres = -0.416823
TsRes = -0.00591256
ExecutionTime = 0.15 s



Wall heat fluxes [W]
movingWall 0.217897 2.77488e-15 0.937666 1.15556
left 0.254512 0 0.932169 1.18668
right -0.61427 -3.00406e-15 -2.03306 -2.64733
bottom -0.274963 0 0.163224 -0.111738
frontAndBack 0 0 0 0
sum -0.416823 -2.29175e-16 -3.32789e-09 -0.416823


Wall heat fluxes [W]
topAndBottom 0 0 0 0
left 2.64329 0 0 2.64329
right -2.64921 0 0 -2.64921
frontAndBack 0 0 0 0
sum -0.00591256 0 0 -0.00591256

Time = 47

DILUPBiCG:  Solving for Ux, Initial residual = 0.00597298, Final residual = 1.29279e-06, No Iterations 2
DILUPBiCG:  Solving for Uy, Initial residual = 0.0111895, Final residual = 1.00298e-06, No Iterations 2
DICPCG:  Solving for p_rgh, Initial residual = 0.020154, Final residual = 0.00019255, No Iterations 5
time step continuity errors : sum local = 0.000938242, global = -1.12629e-16, cumulative = -4.70843e-16
DILUPBiCG:  Solving for epsilon, Initial residual = 0.00607361, Final residual = 3.91838e-06, No Iterations 2
DILUPBiCG:  Solving for k, Initial residual = 0.0169416, Final residual = 8.13436e-05, No Iterations 2
DICPCG:  Solving for G, Initial residual = 0.000710887, Final residual = 3.8578e-05, No Iterations 12
Before T+T solve
BiCG:  Solving for T+T, Initial residual = 0.00080928, Final residual = 3.79477e-07, No Iterations 8
Tres = -0.405243
TsRes = -0.00608194
ExecutionTime = 0.15 s



Wall heat fluxes [W]
movingWall 0.221618 1.94242e-15 0.938964 1.16058
left 0.257694 4.16232e-16 0.933474 1.19117
right -0.612705 -7.73361e-15 -2.03288 -2.64559
bottom -0.27185 0 0.160443 -0.111407
frontAndBack 0 0 0 0
sum -0.405243 -5.37496e-15 6.72923e-08 -0.405243


Wall heat fluxes [W]
topAndBottom 0 0 0 0
left 2.64131 0 0 2.64131
right -2.64739 0 0 -2.64739
frontAndBack 0 0 0 0
sum -0.00608194 0 0 -0.00608194

Time = 48

DILUPBiCG:  Solving for Ux, Initial residual = 0.00593585, Final residual = 1.17675e-06, No Iterations 2
DILUPBiCG:  Solving for Uy, Initial residual = 0.0110702, Final residual = 9.59871e-07, No Iterations 2
DICPCG:  Solving for p_rgh, Initial residual = 0.0210856, Final residual = 6.85644e-05, No Iterations 11
time step continuity errors : sum local = 0.000215619, global = 1.33938e-16, cumulative = -3.36905e-16
DILUPBiCG:  Solving for epsilon, Initial residual = 0.00585972, Final residual = 3.70618e-06, No Iterations 2
DILUPBiCG:  Solving for k, Initial residual = 0.0162734, Final residual = 7.52563e-05, No Iterations 2
DICPCG:  Solving for G, Initial residual = 0.000685529, Final residual = 5.17695e-05, No Iterations 12
Before T+T solve
BiCG:  Solving for T+T, Initial residual = 0.000802047, Final residual = 3.93914e-07, No Iterations 8
Tres = -0.394251
TsRes = -0.00617697
ExecutionTime = 0.15 s



Wall heat fluxes [W]
movingWall 0.225141 2.77488e-16 0.940223 1.16536
left 0.260622 4.85604e-16 0.93474 1.19536
right -0.611079 3.43867e-15 -2.03278 -2.64386
bottom -0.268934 0 0.157815 -0.111119
frontAndBack 0 0 0 0
sum -0.394251 4.20176e-15 2.4592e-08 -0.394251


Wall heat fluxes [W]
topAndBottom 0 0 0 0
left 2.63936 0 0 2.63936
right -2.64554 0 0 -2.64554
frontAndBack 0 0 0 0
sum -0.00617697 0 0 -0.00617697

Time = 49

DILUPBiCG:  Solving for Ux, Initial residual = 0.00598362, Final residual = 1.25297e-06, No Iterations 2
DILUPBiCG:  Solving for Uy, Initial residual = 0.0108054, Final residual = 9.35861e-07, No Iterations 2
DICPCG:  Solving for p_rgh, Initial residual = 0.0223269, Final residual = 0.000128076, No Iterations 5
time step continuity errors : sum local = 0.000463643, global = 1.51407e-16, cumulative = -1.85498e-16
DILUPBiCG:  Solving for epsilon, Initial residual = 0.00563261, Final residual = 3.51419e-06, No Iterations 2
DILUPBiCG:  Solving for k, Initial residual = 0.0156621, Final residual = 7.02388e-05, No Iterations 2
DICPCG:  Solving for G, Initial residual = 0.000671761, Final residual = 4.77665e-05, No Iterations 12
Before T+T solve
BiCG:  Solving for T+T, Initial residual = 0.000793638, Final residual = 4.06068e-07, No Iterations 8
Tres = -0.383838
TsRes = -0.0061975
ExecutionTime = 0.16 s



Wall heat fluxes [W]
movingWall 0.228464 -5.54976e-16 0.941432 1.1699
left 0.263259 -9.01836e-16 0.935953 1.19921
right -0.609407 9.44721e-15 -2.03276 -2.64216
bottom -0.266154 0 0.155372 -0.110782
frontAndBack 0 0 0 0
sum -0.383838 7.99039e-15 2.04915e-08 -0.383838


Wall heat fluxes [W]
topAndBottom 0 0 0 0
left 2.63747 0 0 2.63747
right -2.64367 0 0 -2.64367
frontAndBack 0 0 0 0
sum -0.0061975 0 0 -0.0061975

Time = 50

DILUPBiCG:  Solving for Ux, Initial residual = 0.00592115, Final residual = 1.27932e-06, No Iterations 2
DILUPBiCG:  Solving for Uy, Initial residual = 0.0106738, Final residual = 9.2339e-07, No Iterations 2
DICPCG:  Solving for p_rgh, Initial residual = 0.0234641, Final residual = 0.000137831, No Iterations 5
time step continuity errors : sum local = 0.00048336, global = -2.99109e-16, cumulative = -4.84607e-16
DILUPBiCG:  Solving for epsilon, Initial residual = 0.00537619, Final residual = 3.27902e-06, No Iterations 2
DILUPBiCG:  Solving for k, Initial residual = 0.0149816, Final residual = 6.64594e-05, No Iterations 2
DICPCG:  Solving for G, Initial residual = 0.000658919, Final residual = 4.17921e-05, No Iterations 12
Before T+T solve
BiCG:  Solving for T+T, Initial residual = 0.000785396, Final residual = 4.14706e-07, No Iterations 8
Tres = -0.373902
TsRes = -0.00617483
ExecutionTime = 0.16 s



Wall heat fluxes [W]
movingWall 0.23161 5.54976e-16 0.942622 1.17423
left 0.265728 -7.63092e-16 0.937149 1.20288
right -0.607704 -1.11643e-14 -2.03277 -2.64047
bottom -0.263536 0 0.152996 -0.11054
frontAndBack 0 0 0 0
sum -0.373902 -1.13724e-14 1.47137e-08 -0.373902


Wall heat fluxes [W]
topAndBottom 0 0 0 0
left 2.63562 0 0 2.63562
right -2.6418 0 0 -2.6418
frontAndBack 0 0 0 0
sum -0.00617483 0 0 -0.00617483

Time = 51

DILUPBiCG:  Solving for Ux, Initial residual = 0.00586795, Final residual = 1.31309e-06, No Iterations 2
DILUPBiCG:  Solving for Uy, Initial residual = 0.0104658, Final residual = 9.22791e-07, No Iterations 2
DICPCG:  Solving for p_rgh, Initial residual = 0.0245403, Final residual = 0.000148057, No Iterations 5
time step continuity errors : sum local = 0.000554771, global = -2.32934e-17, cumulative = -5.079e-16
DILUPBiCG:  Solving for epsilon, Initial residual = 0.00511091, Final residual = 3.05245e-06, No Iterations 2
DILUPBiCG:  Solving for k, Initial residual = 0.0143567, Final residual = 6.45064e-05, No Iterations 2
DICPCG:  Solving for G, Initial residual = 0.000621399, Final residual = 4.54567e-05, No Iterations 12
Before T+T solve
BiCG:  Solving for T+T, Initial residual = 0.000776928, Final residual = 4.19725e-07, No Iterations 8
Tres = -0.364446
TsRes = -0.00607183
ExecutionTime = 0.16 s



Wall heat fluxes [W]
movingWall 0.234587 -1.10995e-15 0.943751 1.17834
left 0.26806 -1.17932e-15 0.938283 1.20634
right -0.60599 -4.29925e-16 -2.03284 -2.63883
bottom -0.261103 0 0.150808 -0.110295
frontAndBack 0 0 0 0
sum -0.364446 -2.7192e-15 1.75098e-08 -0.364446


Wall heat fluxes [W]
topAndBottom 0 0 0 0
left 2.63388 0 0 2.63388
right -2.63995 0 0 -2.63995
frontAndBack 0 0 0 0
sum -0.00607183 0 0 -0.00607183

Time = 52

DILUPBiCG:  Solving for Ux, Initial residual = 0.00581767, Final residual = 1.36198e-06, No Iterations 2
DILUPBiCG:  Solving for Uy, Initial residual = 0.010204, Final residual = 9.24419e-07, No Iterations 2
DICPCG:  Solving for p_rgh, Initial residual = 0.0255514, Final residual = 0.000160018, No Iterations 5
time step continuity errors : sum local = 0.000639334, global = 8.20894e-17, cumulative = -4.25811e-16
DILUPBiCG:  Solving for epsilon, Initial residual = 0.00494174, Final residual = 2.84316e-06, No Iterations 2
DILUPBiCG:  Solving for k, Initial residual = 0.0137886, Final residual = 6.35058e-05, No Iterations 2
DICPCG:  Solving for G, Initial residual = 0.000599123, Final residual = 4.13371e-05, No Iterations 12
Before T+T solve
BiCG:  Solving for T+T, Initial residual = 0.00076786, Final residual = 4.22566e-07, No Iterations 8
Tres = -0.355423
TsRes = -0.00591126
ExecutionTime = 0.17 s



Wall heat fluxes [W]
movingWall 0.237407 2.77488e-16 0.944831 1.18224
left 0.270297 -1.80367e-15 0.939367 1.20966
right -0.604282 6.0185e-15 -2.03296 -2.63724
bottom -0.258845 0 0.148762 -0.110083
frontAndBack 0 0 0 0
sum -0.355423 4.49232e-15 1.84713e-08 -0.355423


Wall heat fluxes [W]
topAndBottom 0 0 0 0
left 2.63224 0 0 2.63224
right -2.63815 0 0 -2.63815
frontAndBack 0 0 0 0
sum -0.00591126 0 0 -0.00591126

Time = 53

DILUPBiCG:  Solving for Ux, Initial residual = 0.00577877, Final residual = 1.42624e-06, No Iterations 2
DILUPBiCG:  Solving for Uy, Initial residual = 0.00993572, Final residual = 9.39091e-07, No Iterations 2
DICPCG:  Solving for p_rgh, Initial residual = 0.026504, Final residual = 0.000170394, No Iterations 5
time step continuity errors : sum local = 0.000701281, global = -1.65966e-16, cumulative = -5.91776e-16
DILUPBiCG:  Solving for epsilon, Initial residual = 0.00476247, Final residual = 2.64293e-06, No Iterations 2
DILUPBiCG:  Solving for k, Initial residual = 0.0132131, Final residual = 6.35036e-05, No Iterations 2
DICPCG:  Solving for G, Initial residual = 0.00056434, Final residual = 4.00204e-05, No Iterations 12
Before T+T solve
BiCG:  Solving for T+T, Initial residual = 0.00075817, Final residual = 4.23561e-07, No Iterations 8
Tres = -0.346805
TsRes = -0.00569176
ExecutionTime = 0.17 s



Wall heat fluxes [W]
movingWall 0.24008 1.94242e-15 0.945851 1.18593
left 0.27248 2.70551e-15 0.94039 1.21287
right -0.602602 -1.28906e-14 -2.03311 -2.63571
bottom -0.256763 0 0.146871 -0.109891
frontAndBack 0 0 0 0
sum -0.346805 -8.24268e-15 1.57736e-08 -0.346805


Wall heat fluxes [W]
topAndBottom 0 0 0 0
left 2.63071 0 0 2.63071
right -2.6364 0 0 -2.6364
frontAndBack 0 0 0 0
sum -0.00569176 0 0 -0.00569176

Time = 54

DILUPBiCG:  Solving for Ux, Initial residual = 0.0057371, Final residual = 1.49431e-06, No Iterations 2
DILUPBiCG:  Solving for Uy, Initial residual = 0.00968319, Final residual = 9.73095e-07, No Iterations 2
DICPCG:  Solving for p_rgh, Initial residual = 0.0273665, Final residual = 0.000176193, No Iterations 5
time step continuity errors : sum local = 0.000721814, global = -8.2321e-17, cumulative = -6.74097e-16
DILUPBiCG:  Solving for epsilon, Initial residual = 0.00458414, Final residual = 2.45367e-06, No Iterations 2
DILUPBiCG:  Solving for k, Initial residual = 0.0126459, Final residual = 6.47144e-05, No Iterations 2
DICPCG:  Solving for G, Initial residual = 0.000531659, Final residual = 3.66566e-05, No Iterations 12
Before T+T solve
BiCG:  Solving for T+T, Initial residual = 0.000748674, Final residual = 4.22974e-07, No Iterations 8
Tres = -0.338566
TsRes = -0.00542303
ExecutionTime = 0.17 s



Wall heat fluxes [W]
movingWall 0.242617 -5.54976e-16 0.946811 1.18943
left 0.274639 1.94242e-15 0.941353 1.21599
right -0.600965 -5.1567e-15 -2.03329 -2.63426
bottom -0.254856 0 0.14513 -0.109726
frontAndBack 0 0 0 0
sum -0.338566 -3.76926e-15 1.42839e-08 -0.338566


Wall heat fluxes [W]
topAndBottom 0 0 0 0
left 2.62931 0 0 2.62931
right -2.63473 0 0 -2.63473
frontAndBack 0 0 0 0
sum -0.00542303 0 0 -0.00542303

Time = 55

DILUPBiCG:  Solving for Ux, Initial residual = 0.00569306, Final residual = 1.55661e-06, No Iterations 2
DILUPBiCG:  Solving for Uy, Initial residual = 0.00949039, Final residual = 1.04204e-06, No Iterations 2
DICPCG:  Solving for p_rgh, Initial residual = 0.0281918, Final residual = 0.000177124, No Iterations 5
time step continuity errors : sum local = 0.000701666, global = -1.8873e-16, cumulative = -8.62827e-16
DILUPBiCG:  Solving for epsilon, Initial residual = 0.0043827, Final residual = 2.23176e-06, No Iterations 2
DILUPBiCG:  Solving for k, Initial residual = 0.0120533, Final residual = 6.47454e-05, No Iterations 2
DICPCG:  Solving for G, Initial residual = 0.000494646, Final residual = 3.33573e-05, No Iterations 12
Before T+T solve
BiCG:  Solving for T+T, Initial residual = 0.000739492, Final residual = 4.20934e-07, No Iterations 8
Tres = -0.330668
TsRes = -0.00511104
ExecutionTime = 0.17 s



Wall heat fluxes [W]
movingWall 0.245028 0 0.947705 1.19273
left 0.276802 -4.16232e-15 0.942251 1.21905
right -0.599391 -1.71267e-15 -2.0335 -2.63289
bottom -0.253108 0 0.143541 -0.109567
frontAndBack 0 0 0 0
sum -0.330668 -5.87499e-15 1.28246e-08 -0.330668


Wall heat fluxes [W]
topAndBottom 0 0 0 0
left 2.62803 0 0 2.62803
right -2.63315 0 0 -2.63315
frontAndBack 0 0 0 0
sum -0.00511104 0 0 -0.00511104

Time = 56

DILUPBiCG:  Solving for Ux, Initial residual = 0.00566126, Final residual = 1.62404e-06, No Iterations 2
DILUPBiCG:  Solving for Uy, Initial residual = 0.0093531, Final residual = 1.1517e-06, No Iterations 2
DICPCG:  Solving for p_rgh, Initial residual = 0.0288447, Final residual = 0.000175883, No Iterations 5
time step continuity errors : sum local = 0.000658177, global = 3.65283e-17, cumulative = -8.26298e-16
DILUPBiCG:  Solving for epsilon, Initial residual = 0.0042024, Final residual = 2.04531e-06, No Iterations 2
DILUPBiCG:  Solving for k, Initial residual = 0.011504, Final residual = 6.61722e-05, No Iterations 2
DICPCG:  Solving for G, Initial residual = 0.000460426, Final residual = 3.01148e-05, No Iterations 12
Before T+T solve
BiCG:  Solving for T+T, Initial residual = 0.00073073, Final residual = 4.17543e-07, No Iterations 8
Tres = -0.323073
TsRes = -0.00477024
ExecutionTime = 0.17 s



Wall heat fluxes [W]
movingWall 0.247326 2.77488e-16 0.948539 1.19586
left 0.278989 -2.77488e-16 0.943087 1.22208
right -0.597892 3.43237e-15 -2.0337 -2.6316
bottom -0.251495 0 0.142078 -0.109417
frontAndBack 0 0 0 0
sum -0.323073 3.43237e-15 1.06134e-08 -0.323073


Wall heat fluxes [W]
topAndBottom 0 0 0 0
left 2.62689 0 0 2.62689
right -2.63166 0 0 -2.63166
frontAndBack 0 0 0 0
sum -0.00477024 0 0 -0.00477024

Time = 57

DILUPBiCG:  Solving for Ux, Initial residual = 0.00563538, Final residual = 1.68424e-06, No Iterations 2
DILUPBiCG:  Solving for Uy, Initial residual = 0.00925308, Final residual = 1.34876e-06, No Iterations 2
DICPCG:  Solving for p_rgh, Initial residual = 0.0293479, Final residual = 0.000175077, No Iterations 5
time step continuity errors : sum local = 0.000608397, global = -1.19648e-16, cumulative = -9.45946e-16
DILUPBiCG:  Solving for epsilon, Initial residual = 0.00403966, Final residual = 1.87867e-06, No Iterations 2
DILUPBiCG:  Solving for k, Initial residual = 0.010979, Final residual = 6.9525e-05, No Iterations 2
DICPCG:  Solving for G, Initial residual = 0.000427958, Final residual = 2.6779e-05, No Iterations 12
Before T+T solve
BiCG:  Solving for T+T, Initial residual = 0.000722464, Final residual = 4.13105e-07, No Iterations 8
Tres = -0.315746
TsRes = -0.00441072
ExecutionTime = 0.18 s



Wall heat fluxes [W]
movingWall 0.249521 -1.66493e-15 0.949316 1.19884
left 0.281216 0 0.943867 1.22508
right -0.596482 -6.45495e-15 -2.03391 -2.63039
bottom -0.250001 0 0.140726 -0.109275
frontAndBack 0 0 0 0
sum -0.315746 -8.11988e-15 8.41838e-09 -0.315746


Wall heat fluxes [W]
topAndBottom 0 0 0 0
left 2.62587 0 0 2.62587
right -2.63028 0 0 -2.63028
frontAndBack 0 0 0 0
sum -0.00441072 0 0 -0.00441072

Time = 58

DILUPBiCG:  Solving for Ux, Initial residual = 0.00561699, Final residual = 1.73983e-06, No Iterations 2
DILUPBiCG:  Solving for Uy, Initial residual = 0.00917293, Final residual = 1.59683e-06, No Iterations 2
DICPCG:  Solving for p_rgh, Initial residual = 0.0296685, Final residual = 0.000174827, No Iterations 5
time step continuity errors : sum local = 0.000562505, global = 5.82335e-17, cumulative = -8.87712e-16
DILUPBiCG:  Solving for epsilon, Initial residual = 0.00389128, Final residual = 1.72847e-06, No Iterations 2
DILUPBiCG:  Solving for k, Initial residual = 0.0104735, Final residual = 7.84093e-05, No Iterations 2
DICPCG:  Solving for G, Initial residual = 0.000396903, Final residual = 2.25442e-05, No Iterations 12
Before T+T solve
BiCG:  Solving for T+T, Initial residual = 0.000714738, Final residual = 4.08798e-07, No Iterations 8
Tres = -0.308655
TsRes = -0.00404108
ExecutionTime = 0.18 s



Wall heat fluxes [W]
movingWall 0.251626 -1.38744e-15 0.950038 1.20166
left 0.283497 9.01836e-16 0.944592 1.22809
right -0.595171 3.00021e-15 -2.0341 -2.62927
bottom -0.248607 0 0.139469 -0.109138
frontAndBack 0 0 0 0
sum -0.308655 2.51461e-15 3.91705e-09 -0.308655


Wall heat fluxes [W]
topAndBottom 0 0 0 0
left 2.62497 0 0 2.62497
[...]
DILUPBiCG:  Solving for k, Initial residual = 3.49677e-10, Final residual = 2.44286e-12, No Iterations 2
DICPCG:  Solving for G, Initial residual = 7.96214e-12, Final residual = 1.96373e-13, No Iterations 11
Before T+T solve
BiCG:  Solving for T+T, Initial residual = 2.90394e-11, Final residual = 1.15323e-14, No Iterations 8
Tres = -1.49189e-08
TsRes = -1.32003e-10
ExecutionTime = 2.4 s



Wall heat fluxes [W]
movingWall 0.375476 5.54976e-16 0.974645 1.35012
left 0.377248 1.38744e-15 0.969302 1.34655
right -0.561393 3.44461e-15 -2.03295 -2.59434
bottom -0.191331 0 0.0890037 -0.102327
frontAndBack 0 0 0 0
sum -1.49189e-08 5.38702e-15 5.68337e-13 -1.49183e-08


Wall heat fluxes [W]
topAndBottom 0 0 0 0
left 2.59434 0 0 2.59434
right -2.59434 0 0 -2.59434
frontAndBack 0 0 0 0
sum -1.32003e-10 0 0 -1.32003e-10

Time = 987

DILUPBiCG:  Solving for Ux, Initial residual = 1.58147e-10, Final residual = 1.23862e-12, No Iterations 1
DILUPBiCG:  Solving for Uy, Initial residual = 2.41147e-10, Final residual = 8.0739e-14, No Iterations 2
DICPCG:  Solving for p_rgh, Initial residual = 2.94423e-10, Final residual = 1.74953e-12, No Iterations 12
time step continuity errors : sum local = 6.46927e-12, global = 2.47757e-16, cumulative = -1.42005e-15
DILUPBiCG:  Solving for epsilon, Initial residual = 1.92041e-10, Final residual = 5.53557e-14, No Iterations 3
DILUPBiCG:  Solving for k, Initial residual = 3.41641e-10, Final residual = 2.38417e-12, No Iterations 2
DICPCG:  Solving for G, Initial residual = 7.84102e-12, Final residual = 2.2379e-13, No Iterations 11
Before T+T solve
BiCG:  Solving for T+T, Initial residual = 2.84078e-11, Final residual = 1.12834e-14, No Iterations 8
Tres = -1.45946e-08
TsRes = -1.29022e-10
ExecutionTime = 2.4 s



Wall heat fluxes [W]
movingWall 0.375476 -1.10995e-15 0.974645 1.35012
left 0.377248 3.88483e-15 0.969302 1.34655
right -0.561393 8.18088e-15 -2.03295 -2.59434
bottom -0.191331 0 0.0890037 -0.102327
frontAndBack 0 0 0 0
sum -1.45946e-08 1.09558e-14 4.63241e-13 -1.45941e-08


Wall heat fluxes [W]
topAndBottom 0 0 0 0
left 2.59434 0 0 2.59434
right -2.59434 0 0 -2.59434
frontAndBack 0 0 0 0
sum -1.29023e-10 0 0 -1.29023e-10

Time = 988

DILUPBiCG:  Solving for Ux, Initial residual = 1.54677e-10, Final residual = 1.21113e-12, No Iterations 1
DILUPBiCG:  Solving for Uy, Initial residual = 2.35865e-10, Final residual = 7.899e-14, No Iterations 2
DICPCG:  Solving for p_rgh, Initial residual = 2.87946e-10, Final residual = 1.71127e-12, No Iterations 12
time step continuity errors : sum local = 6.32787e-12, global = 1.50348e-16, cumulative = -1.2697e-15
DILUPBiCG:  Solving for epsilon, Initial residual = 1.87645e-10, Final residual = 5.41092e-14, No Iterations 3
DILUPBiCG:  Solving for k, Initial residual = 3.3379e-10, Final residual = 2.32691e-12, No Iterations 2
DICPCG:  Solving for G, Initial residual = 7.67103e-12, Final residual = 1.86837e-13, No Iterations 11
Before T+T solve
BiCG:  Solving for T+T, Initial residual = 2.77896e-11, Final residual = 1.10492e-14, No Iterations 8
Tres = -1.42773e-08
TsRes = -1.26329e-10
ExecutionTime = 2.41 s



Wall heat fluxes [W]
movingWall 0.375476 -5.54976e-16 0.974645 1.35012
left 0.377248 2.56676e-15 0.969302 1.34655
right -0.561393 4.73085e-15 -2.03295 -2.59434
bottom -0.191331 0 0.0890037 -0.102327
frontAndBack 0 0 0 0
sum -1.42773e-08 6.74264e-15 8.46268e-13 -1.42765e-08


Wall heat fluxes [W]
topAndBottom 0 0 0 0
left 2.59434 0 0 2.59434
right -2.59434 0 0 -2.59434
frontAndBack 0 0 0 0
sum -1.2633e-10 0 0 -1.2633e-10

Time = 989

DILUPBiCG:  Solving for Ux, Initial residual = 1.51286e-10, Final residual = 1.18424e-12, No Iterations 1
DILUPBiCG:  Solving for Uy, Initial residual = 2.30698e-10, Final residual = 7.7281e-14, No Iterations 2
DICPCG:  Solving for p_rgh, Initial residual = 2.81611e-10, Final residual = 1.67386e-12, No Iterations 12
time step continuity errors : sum local = 6.18931e-12, global = -1.43731e-16, cumulative = -1.41343e-15
DILUPBiCG:  Solving for epsilon, Initial residual = 1.83349e-10, Final residual = 5.28915e-14, No Iterations 3
DILUPBiCG:  Solving for k, Initial residual = 3.26119e-10, Final residual = 2.271e-12, No Iterations 2
DICPCG:  Solving for G, Initial residual = 7.52391e-12, Final residual = 2.36514e-13, No Iterations 11
Before T+T solve
BiCG:  Solving for T+T, Initial residual = 2.71848e-11, Final residual = 1.08068e-14, No Iterations 8
Tres = -1.39668e-08
TsRes = -1.235e-10
ExecutionTime = 2.41 s



Wall heat fluxes [W]
movingWall 0.375476 -2.77488e-15 0.974645 1.35012
left 0.377248 5.54976e-16 0.969302 1.34655
right -0.561393 -5.16921e-15 -2.03295 -2.59434
bottom -0.191331 0 0.0890037 -0.102327
frontAndBack 0 0 0 0
sum -1.39668e-08 -7.38912e-15 6.31856e-13 -1.39662e-08


Wall heat fluxes [W]
topAndBottom 0 0 0 0
left 2.59434 0 0 2.59434
right -2.59434 0 0 -2.59434
frontAndBack 0 0 0 0
sum -1.23499e-10 0 0 -1.23499e-10

Time = 990

DILUPBiCG:  Solving for Ux, Initial residual = 1.47969e-10, Final residual = 1.15795e-12, No Iterations 1
DILUPBiCG:  Solving for Uy, Initial residual = 2.25644e-10, Final residual = 7.56069e-14, No Iterations 2
DICPCG:  Solving for p_rgh, Initial residual = 2.75414e-10, Final residual = 1.63725e-12, No Iterations 12
time step continuity errors : sum local = 6.05446e-12, global = -1.2282e-16, cumulative = -1.53625e-15
DILUPBiCG:  Solving for epsilon, Initial residual = 1.79151e-10, Final residual = 5.17006e-14, No Iterations 3
DILUPBiCG:  Solving for k, Initial residual = 3.18623e-10, Final residual = 2.21644e-12, No Iterations 2
DICPCG:  Solving for G, Initial residual = 7.27153e-12, Final residual = 1.77151e-13, No Iterations 11
Before T+T solve
BiCG:  Solving for T+T, Initial residual = 2.6593e-11, Final residual = 1.0573e-14, No Iterations 8
Tres = -1.36631e-08
TsRes = -1.20781e-10
ExecutionTime = 2.41 s



Wall heat fluxes [W]
movingWall 0.375476 1.10995e-15 0.974645 1.35012
left 0.377248 -4.85604e-15 0.969302 1.34655
right -0.561393 -4.38044e-16 -2.03295 -2.59434
bottom -0.191331 0 0.0890037 -0.102327
frontAndBack 0 0 0 0
sum -1.36631e-08 -4.18413e-15 3.73562e-13 -1.36627e-08


Wall heat fluxes [W]
topAndBottom 0 0 0 0
left 2.59434 0 0 2.59434
right -2.59434 0 0 -2.59434
frontAndBack 0 0 0 0
sum -1.20781e-10 0 0 -1.20781e-10

Time = 991

DILUPBiCG:  Solving for Ux, Initial residual = 1.44723e-10, Final residual = 1.13225e-12, No Iterations 1
DILUPBiCG:  Solving for Uy, Initial residual = 2.20699e-10, Final residual = 7.3969e-14, No Iterations 2
DICPCG:  Solving for p_rgh, Initial residual = 2.69355e-10, Final residual = 1.60146e-12, No Iterations 12
time step continuity errors : sum local = 5.92203e-12, global = 3.65283e-17, cumulative = -1.49973e-15
DILUPBiCG:  Solving for epsilon, Initial residual = 1.75048e-10, Final residual = 5.05363e-14, No Iterations 3
DILUPBiCG:  Solving for k, Initial residual = 3.113e-10, Final residual = 2.16319e-12, No Iterations 2
DICPCG:  Solving for G, Initial residual = 7.11923e-12, Final residual = 1.85259e-13, No Iterations 11
Before T+T solve
BiCG:  Solving for T+T, Initial residual = 2.60133e-11, Final residual = 1.03377e-14, No Iterations 8
Tres = -1.33659e-08
TsRes = -1.1816e-10
ExecutionTime = 2.41 s



Wall heat fluxes [W]
movingWall 0.375476 -1.66493e-15 0.974645 1.35012
left 0.377248 1.04058e-15 0.969302 1.34655
right -0.561393 8.59655e-16 -2.03295 -2.59434
bottom -0.191331 0 0.0890037 -0.102327
frontAndBack 0 0 0 0
sum -1.33659e-08 2.35307e-16 4.49932e-13 -1.33655e-08


Wall heat fluxes [W]
topAndBottom 0 0 0 0
left 2.59434 0 0 2.59434
right -2.59434 0 0 -2.59434
frontAndBack 0 0 0 0
sum -1.1816e-10 0 0 -1.1816e-10

Time = 992

DILUPBiCG:  Solving for Ux, Initial residual = 1.41549e-10, Final residual = 1.10711e-12, No Iterations 1
DILUPBiCG:  Solving for Uy, Initial residual = 2.15863e-10, Final residual = 7.23654e-14, No Iterations 2
DICPCG:  Solving for p_rgh, Initial residual = 2.63425e-10, Final residual = 1.56643e-12, No Iterations 12
time step continuity errors : sum local = 5.79244e-12, global = -2.85874e-17, cumulative = -1.52831e-15
DILUPBiCG:  Solving for epsilon, Initial residual = 1.7104e-10, Final residual = 4.93984e-14, No Iterations 3
DILUPBiCG:  Solving for k, Initial residual = 3.04146e-10, Final residual = 2.11122e-12, No Iterations 2
DICPCG:  Solving for G, Initial residual = 7.00145e-12, Final residual = 1.7678e-13, No Iterations 11
Before T+T solve
BiCG:  Solving for T+T, Initial residual = 2.54475e-11, Final residual = 1.01153e-14, No Iterations 8
Tres = -1.30752e-08
TsRes = -1.15577e-10
ExecutionTime = 2.42 s



Wall heat fluxes [W]
movingWall 0.375476 -1.10995e-15 0.974645 1.35012
left 0.377248 5.54976e-16 0.969302 1.34655
right -0.561393 2.14759e-15 -2.03295 -2.59434
bottom -0.191331 0 0.0890037 -0.102327
frontAndBack 0 0 0 0
sum -1.30752e-08 1.59261e-15 1.70003e-13 -1.3075e-08


Wall heat fluxes [W]
topAndBottom 0 0 0 0
left 2.59434 0 0 2.59434
right -2.59434 0 0 -2.59434
frontAndBack 0 0 0 0
sum -1.15577e-10 0 0 -1.15577e-10

Time = 993

DILUPBiCG:  Solving for Ux, Initial residual = 1.38443e-10, Final residual = 1.08253e-12, No Iterations 1
DILUPBiCG:  Solving for Uy, Initial residual = 2.11132e-10, Final residual = 7.07971e-14, No Iterations 2
DICPCG:  Solving for p_rgh, Initial residual = 2.57628e-10, Final residual = 1.53215e-12, No Iterations 12
time step continuity errors : sum local = 5.66594e-12, global = 4.12929e-17, cumulative = -1.48702e-15
DILUPBiCG:  Solving for epsilon, Initial residual = 1.67123e-10, Final residual = 4.82867e-14, No Iterations 3
DILUPBiCG:  Solving for k, Initial residual = 2.97155e-10, Final residual = 2.06049e-12, No Iterations 2
DICPCG:  Solving for G, Initial residual = 7.00976e-12, Final residual = 1.71624e-13, No Iterations 11
Before T+T solve
BiCG:  Solving for T+T, Initial residual = 2.48932e-11, Final residual = 9.89706e-15, No Iterations 8
Tres = -1.27907e-08
TsRes = -1.12895e-10
ExecutionTime = 2.42 s



Wall heat fluxes [W]
movingWall 0.375476 -5.54976e-16 0.974645 1.35012
left 0.377248 -3.4686e-15 0.969302 1.34655
right -0.561393 7.74708e-15 -2.03295 -2.59434
bottom -0.191331 0 0.0890037 -0.102327
frontAndBack 0 0 0 0
sum -1.27907e-08 3.7235e-15 -2.23807e-13 -1.27909e-08


Wall heat fluxes [W]
topAndBottom 0 0 0 0
left 2.59434 0 0 2.59434
right -2.59434 0 0 -2.59434
frontAndBack 0 0 0 0
sum -1.12895e-10 0 0 -1.12895e-10

Time = 994

DILUPBiCG:  Solving for Ux, Initial residual = 1.35405e-10, Final residual = 1.0585e-12, No Iterations 1
DILUPBiCG:  Solving for Uy, Initial residual = 2.06505e-10, Final residual = 6.92648e-14, No Iterations 2
DICPCG:  Solving for p_rgh, Initial residual = 2.51956e-10, Final residual = 1.49865e-12, No Iterations 12
time step continuity errors : sum local = 5.54119e-12, global = -8.89385e-17, cumulative = -1.57596e-15
DILUPBiCG:  Solving for epsilon, Initial residual = 1.63296e-10, Final residual = 4.72002e-14, No Iterations 3
DILUPBiCG:  Solving for k, Initial residual = 2.90325e-10, Final residual = 2.01098e-12, No Iterations 2
DICPCG:  Solving for G, Initial residual = 6.74064e-12, Final residual = 1.74534e-13, No Iterations 11
Before T+T solve
BiCG:  Solving for T+T, Initial residual = 2.43512e-11, Final residual = 9.67608e-15, No Iterations 8
Tres = -1.25124e-08
TsRes = -1.10414e-10
ExecutionTime = 2.42 s



Wall heat fluxes [W]
movingWall 0.375476 -2.2199e-15 0.974645 1.35012
left 0.377248 -2.63614e-15 0.969302 1.34655
right -0.561393 2.58327e-15 -2.03295 -2.59434
bottom -0.191331 0 0.0890037 -0.102327
frontAndBack 0 0 0 0
sum -1.25124e-08 -2.27277e-15 -6.1437e-14 -1.25125e-08


Wall heat fluxes [W]
topAndBottom 0 0 0 0
left 2.59434 0 0 2.59434
right -2.59434 0 0 -2.59434
frontAndBack 0 0 0 0
sum -1.10413e-10 0 0 -1.10413e-10

Time = 995

DILUPBiCG:  Solving for Ux, Initial residual = 1.32434e-10, Final residual = 1.035e-12, No Iterations 1
DILUPBiCG:  Solving for Uy, Initial residual = 2.01978e-10, Final residual = 6.77618e-14, No Iterations 2
DICPCG:  Solving for p_rgh, Initial residual = 2.46411e-10, Final residual = 1.46587e-12, No Iterations 12
time step continuity errors : sum local = 5.42082e-12, global = 3.10226e-16, cumulative = -1.26573e-15
DILUPBiCG:  Solving for epsilon, Initial residual = 1.59556e-10, Final residual = 4.61378e-14, No Iterations 3
DILUPBiCG:  Solving for k, Initial residual = 2.83651e-10, Final residual = 1.96265e-12, No Iterations 2
DICPCG:  Solving for G, Initial residual = 6.55763e-12, Final residual = 1.72422e-13, No Iterations 11
Before T+T solve
BiCG:  Solving for T+T, Initial residual = 2.38206e-11, Final residual = 9.46702e-15, No Iterations 8
Tres = -1.22402e-08
TsRes = -1.08017e-10
ExecutionTime = 2.42 s



Wall heat fluxes [W]
movingWall 0.375476 1.66493e-15 0.974645 1.35012
left 0.377248 2.08116e-15 0.969302 1.34655
right -0.561393 1.11934e-14 -2.03295 -2.59434
bottom -0.191331 0 0.0890037 -0.102327
frontAndBack 0 0 0 0
sum -1.22402e-08 1.49395e-14 1.64452e-13 -1.224e-08


Wall heat fluxes [W]
topAndBottom 0 0 0 0
left 2.59434 0 0 2.59434
right -2.59434 0 0 -2.59434
frontAndBack 0 0 0 0
sum -1.08018e-10 0 0 -1.08018e-10

Time = 996

DILUPBiCG:  Solving for Ux, Initial residual = 1.29528e-10, Final residual = 1.01201e-12, No Iterations 1
DILUPBiCG:  Solving for Uy, Initial residual = 1.9755e-10, Final residual = 6.6293e-14, No Iterations 2
DICPCG:  Solving for p_rgh, Initial residual = 2.40988e-10, Final residual = 1.43379e-12, No Iterations 12
time step continuity errors : sum local = 5.3023e-12, global = 2.48816e-17, cumulative = -1.24085e-15
DILUPBiCG:  Solving for epsilon, Initial residual = 1.55902e-10, Final residual = 4.50993e-14, No Iterations 3
DILUPBiCG:  Solving for k, Initial residual = 2.77131e-10, Final residual = 1.9155e-12, No Iterations 2
DICPCG:  Solving for G, Initial residual = 6.44429e-12, Final residual = 1.60223e-13, No Iterations 11
Before T+T solve
BiCG:  Solving for T+T, Initial residual = 2.33012e-11, Final residual = 9.269e-15, No Iterations 8
Tres = -1.19739e-08
TsRes = -1.05817e-10
ExecutionTime = 2.43 s



Wall heat fluxes [W]
movingWall 0.375476 -1.10995e-15 0.974645 1.35012
left 0.377248 3.26048e-15 0.969302 1.34655
right -0.561393 -3.44374e-15 -2.03295 -2.59434
bottom -0.191331 0 0.0890037 -0.102327
frontAndBack 0 0 0 0
sum -1.19739e-08 -1.29321e-15 4.0061e-13 -1.19735e-08


Wall heat fluxes [W]
topAndBottom 0 0 0 0
left 2.59434 0 0 2.59434
right -2.59434 0 0 -2.59434
frontAndBack 0 0 0 0
sum -1.05816e-10 0 0 -1.05816e-10

Time = 997

DILUPBiCG:  Solving for Ux, Initial residual = 1.26684e-10, Final residual = 9.89543e-13, No Iterations 1
DILUPBiCG:  Solving for Uy, Initial residual = 1.93219e-10, Final residual = 6.4856e-14, No Iterations 2
DICPCG:  Solving for p_rgh, Initial residual = 2.35682e-10, Final residual = 1.4024e-12, No Iterations 12
time step continuity errors : sum local = 5.18591e-12, global = -1.79995e-17, cumulative = -1.25885e-15
DILUPBiCG:  Solving for epsilon, Initial residual = 1.52331e-10, Final residual = 4.40871e-14, No Iterations 3
DILUPBiCG:  Solving for k, Initial residual = 2.7076e-10, Final residual = 1.86946e-12, No Iterations 2
DICPCG:  Solving for G, Initial residual = 6.31272e-12, Final residual = 1.73287e-13, No Iterations 11
Before T+T solve
BiCG:  Solving for T+T, Initial residual = 2.27938e-11, Final residual = 9.07017e-15, No Iterations 8
Tres = -1.17132e-08
TsRes = -1.0367e-10
ExecutionTime = 2.43 s



Wall heat fluxes [W]
movingWall 0.375476 -5.54976e-16 0.974645 1.35012
left 0.377248 1.10995e-15 0.969302 1.34655
right -0.561393 -2.58185e-15 -2.03295 -2.59434
bottom -0.191331 0 0.0890037 -0.102327
frontAndBack 0 0 0 0
sum -1.17132e-08 -2.02688e-15 3.41172e-13 -1.17129e-08


Wall heat fluxes [W]
topAndBottom 0 0 0 0
left 2.59434 0 0 2.59434
right -2.59434 0 0 -2.59434
frontAndBack 0 0 0 0
sum -1.03671e-10 0 0 -1.03671e-10

Time = 998

DILUPBiCG:  Solving for Ux, Initial residual = 1.23903e-10, Final residual = 9.67567e-13, No Iterations 1
DILUPBiCG:  Solving for Uy, Initial residual = 1.88983e-10, Final residual = 6.34505e-14, No Iterations 2
DICPCG:  Solving for p_rgh, Initial residual = 2.30494e-10, Final residual = 1.37172e-12, No Iterations 12
time step continuity errors : sum local = 5.07221e-12, global = 2.06994e-16, cumulative = -1.05186e-15
DILUPBiCG:  Solving for epsilon, Initial residual = 1.48842e-10, Final residual = 4.30978e-14, No Iterations 3
DILUPBiCG:  Solving for k, Initial residual = 2.64535e-10, Final residual = 1.82454e-12, No Iterations 2
DICPCG:  Solving for G, Initial residual = 6.25731e-12, Final residual = 1.50504e-13, No Iterations 11
Before T+T solve
BiCG:  Solving for T+T, Initial residual = 2.22975e-11, Final residual = 8.86223e-15, No Iterations 8
Tres = -1.14583e-08
TsRes = -1.0134e-10
ExecutionTime = 2.43 s



Wall heat fluxes [W]
movingWall 0.375476 1.10995e-15 0.974645 1.35012
left 0.377248 4.92541e-15 0.969302 1.34655
right -0.561393 8.5888e-16 -2.03295 -2.59434
bottom -0.191331 0 0.0890037 -0.102327
frontAndBack 0 0 0 0
sum -1.14583e-08 6.89424e-15 4.46684e-13 -1.14579e-08


Wall heat fluxes [W]
topAndBottom 0 0 0 0
left 2.59434 0 0 2.59434
right -2.59434 0 0 -2.59434
frontAndBack 0 0 0 0
sum -1.01339e-10 0 0 -1.01339e-10

Time = 999

DILUPBiCG:  Solving for Ux, Initial residual = 1.21185e-10, Final residual = 9.46075e-13, No Iterations 1
DILUPBiCG:  Solving for Uy, Initial residual = 1.84838e-10, Final residual = 6.20738e-14, No Iterations 2
DICPCG:  Solving for p_rgh, Initial residual = 2.25419e-10, Final residual = 1.34169e-12, No Iterations 12
time step continuity errors : sum local = 4.96174e-12, global = -1.74171e-16, cumulative = -1.22603e-15
DILUPBiCG:  Solving for epsilon, Initial residual = 1.45433e-10, Final residual = 4.21306e-14, No Iterations 3
DILUPBiCG:  Solving for k, Initial residual = 2.58454e-10, Final residual = 1.7807e-12, No Iterations 2
DICPCG:  Solving for G, Initial residual = 6.07497e-12, Final residual = 1.52824e-13, No Iterations 11
Before T+T solve
BiCG:  Solving for T+T, Initial residual = 2.18115e-11, Final residual = 8.66396e-15, No Iterations 8
Tres = -1.12088e-08
TsRes = -9.89512e-11
ExecutionTime = 2.43 s



Wall heat fluxes [W]
movingWall 0.375476 1.10995e-15 0.974645 1.35012
left 0.377248 -2.77488e-16 0.969302 1.34655
right -0.561393 -9.46367e-15 -2.03295 -2.59434
bottom -0.191331 0 0.0890037 -0.102327
frontAndBack 0 0 0 0
sum -1.12088e-08 -8.63121e-15 -2.7095e-13 -1.1209e-08


Wall heat fluxes [W]
topAndBottom 0 0 0 0
left 2.59434 0 0 2.59434
right -2.59434 0 0 -2.59434
frontAndBack 0 0 0 0
sum -9.89515e-11 0 0 -9.89515e-11

Time = 1000

DILUPBiCG:  Solving for Ux, Initial residual = 1.18522e-10, Final residual = 9.25063e-13, No Iterations 1
DILUPBiCG:  Solving for Uy, Initial residual = 1.80785e-10, Final residual = 6.07278e-14, No Iterations 2
DICPCG:  Solving for p_rgh, Initial residual = 2.20452e-10, Final residual = 1.31232e-12, No Iterations 12
time step continuity errors : sum local = 4.85293e-12, global = 1.60407e-16, cumulative = -1.06562e-15
DILUPBiCG:  Solving for epsilon, Initial residual = 1.42102e-10, Final residual = 4.11844e-14, No Iterations 3
DILUPBiCG:  Solving for k, Initial residual = 2.52517e-10, Final residual = 1.73789e-12, No Iterations 2
DICPCG:  Solving for G, Initial residual = 5.98806e-12, Final residual = 1.43838e-13, No Iterations 11
Before T+T solve
BiCG:  Solving for T+T, Initial residual = 2.13359e-11, Final residual = 8.48146e-15, No Iterations 8
Tres = -1.09649e-08
TsRes = -9.70343e-11
ExecutionTime = 2.45 s



Wall heat fluxes [W]
movingWall 0.375476 -3.88483e-15 0.974645 1.35012
left 0.377248 6.9372e-16 0.969302 1.34655
right -0.561393 9.89959e-15 -2.03295 -2.59434
bottom -0.191331 0 0.0890037 -0.102327
frontAndBack 0 0 0 0
sum -1.09649e-08 6.70848e-15 5.10175e-13 -1.09644e-08


Wall heat fluxes [W]
topAndBottom 0 0 0 0
left 2.59434 0 0 2.59434
right -2.59434 0 0 -2.59434
frontAndBack 0 0 0 0
sum -9.70344e-11 0 0 -9.70344e-11

End

