/*---------------------------------------------------------------------------*\
| =========                 |                                                 |
| \\      /  F ield         | OpenFOAM Extend Project: Open source CFD        |
|  \\    /   O peration     | Version:  1.6-ext                               |
|   \\  /    A nd           | Web:      www.extend-project.de                 |
|    \\/     M anipulation  |                                                 |
\*---------------------------------------------------------------------------*/
Build  : 1.6-ext-daa8fb2a98e6
Exec   : chipAirCoolingSimpleFoam
Date   : Nov 29 2011
Time   : 22:11:44
Host   : ubuntu
PID    : 32692
Case   : /home/user/ChipAirCoolingClient/run/tutorial1_extendedHTC
nProcs : 1
SigFpe : Enabling floating point exception trapping (FOAM_SIGFPE).

// * * * * * * * * * * * * * * * * * * * * * * * * * * * * * * * * * * * * * //
Create time

Create mesh for time = 0


Reading g
Reading transportProperties

Calculating field g.h

Reading field p_rgh

Reading field U

Reading field T

Selecting external radiation source viewFactor
Here 2
externalRadiationSource::externalRadiationSource
Selecting external radiation source viewFactor
Here 2
externalRadiationSource::externalRadiationSource
Selecting external radiation source constantFlux
Here 2
externalRadiationSource::externalRadiationSource
Selecting external radiation source pointSource
Here 2
externalRadiationSource::externalRadiationSource
Reading/calculating face flux field phi

Selecting incompressible transport model Newtonian
Selecting RAS turbulence model kEpsilon
kEpsilonCoeffs
{
    Cmu             0.09;
    C1              1.44;
    C2              1.92;
    alphaEps        0.76923;
    sigmaEps        1.3;
}

Reading field kappaEff

Creating radiation model

Selecting radiationModel P1
Selecting absorptionEmissionModel constantAbsorptionEmission
Selecting scatterModel constantScatter
Reading field Tsolid

Reading solid thermal properties
Selecting thermal model multiMaterialZones
Selecting thermal model constant
Selecting thermal model constant
Selecting thermal gap model constant
Reading solid diffusivity k


Starting time loop

--> FOAM Warning : 
    From function dlLibraryTable::open(const dictionary& dict, const word& libsEntry, const TablePtr tablePtr)
    in file lnInclude/dlLibraryTableTemplates.C at line 68
    library "libairbusMaterialModels.so" did not introduce any new entries

Time = 1

DILUPBiCG:  Solving for Ux, Initial residual = 1, Final residual = 9.72759e-05, No Iterations 2
DILUPBiCG:  Solving for Uy, Initial residual = 1, Final residual = 0.000174731, No Iterations 2
DICPCG:  Solving for p_rgh, Initial residual = 1, Final residual = 0.00985949, No Iterations 5
time step continuity errors : sum local = 0.00481111, global = 2.0845e-18, cumulative = 2.0845e-18
DILUPBiCG:  Solving for epsilon, Initial residual = 0.0778063, Final residual = 0.000142604, No Iterations 2
DILUPBiCG:  Solving for k, Initial residual = 1, Final residual = 0.00249972, No Iterations 2
DICPCG:  Solving for G, Initial residual = 1, Final residual = 0.0255384, No Iterations 11
Before T+T solve
BiCG:  Solving for T+T, Initial residual = 0.307192, Final residual = 0.000239373, No Iterations 9
Tres = -0.758873
TsRes = -16.8459
ExecutionTime = 0.02 s



Wall heat fluxes [W]
movingWall 0.0114437 0 8.04921e-07 0.0114445
left 0.0050089 0 -1.20093e-06 0.0050077
right -0.537839 0 8.04921e-07 -0.537839
bottom -0.152171 0 -1.20093e-06 -0.152173
frontAndBack 0 0 0 0
sum -0.673558 0 -7.92022e-07 -0.673559


Wall heat fluxes [W]
topAndBottom 0 0 0 0
left 27.4165 0 0 27.4165
right -17.4694 0 0 -17.4694
frontAndBack 0 0 0 0
sum 9.94708 0 0 9.94708

Time = 2

DILUPBiCG:  Solving for Ux, Initial residual = 0.887686, Final residual = 9.20245e-05, No Iterations 2
DILUPBiCG:  Solving for Uy, Initial residual = 0.829146, Final residual = 0.00715655, No Iterations 1
DICPCG:  Solving for p_rgh, Initial residual = 0.901176, Final residual = 0.00690696, No Iterations 6
time step continuity errors : sum local = 0.0228595, global = 1.01909e-16, cumulative = 1.03993e-16
DILUPBiCG:  Solving for epsilon, Initial residual = 0.024235, Final residual = 3.05523e-05, No Iterations 2
DILUPBiCG:  Solving for k, Initial residual = 0.650792, Final residual = 0.000806904, No Iterations 2
DICPCG:  Solving for G, Initial residual = 0.993798, Final residual = 0.0318079, No Iterations 13
Before T+T solve
BiCG:  Solving for T+T, Initial residual = 0.0227112, Final residual = 1.58548e-05, No Iterations 11
Tres = -0.937585
TsRes = -4.72904
ExecutionTime = 0.02 s



Wall heat fluxes [W]
movingWall 0.0117692 2.16668e-21 0.411536 0.423305
left 0.0112097 -3.65725e-18 0.408033 0.419243
right -0.575612 4.70767e-15 -1.1148 -1.69041
bottom -0.330916 0 0.295233 -0.035683
frontAndBack 0 0 0 0
sum -0.883549 4.70402e-15 3.10394e-06 -0.883546


Wall heat fluxes [W]
topAndBottom 0 0 0 0
left 19.8822 0 0 19.8822
right -6.63923 0 0 -6.63923
frontAndBack 0 0 0 0
sum 13.243 0 0 13.243

Time = 3

DILUPBiCG:  Solving for Ux, Initial residual = 0.236368, Final residual = 0.00208808, No Iterations 1
DILUPBiCG:  Solving for Uy, Initial residual = 0.284254, Final residual = 0.00227528, No Iterations 1
DICPCG:  Solving for p_rgh, Initial residual = 0.413378, Final residual = 0.00354264, No Iterations 7
time step continuity errors : sum local = 0.0126011, global = 1.10644e-16, cumulative = 2.14637e-16
DILUPBiCG:  Solving for epsilon, Initial residual = 0.0753638, Final residual = 4.11584e-05, No Iterations 2
DILUPBiCG:  Solving for k, Initial residual = 0.218071, Final residual = 0.000272165, No Iterations 2
DICPCG:  Solving for G, Initial residual = 0.163138, Final residual = 0.00497063, No Iterations 11
Before T+T solve
BiCG:  Solving for T+T, Initial residual = 0.00668958, Final residual = 4.27038e-06, No Iterations 10
Tres = -0.900745
TsRes = -2.42039
ExecutionTime = 0.02 s



Wall heat fluxes [W]
movingWall 0.0143401 -2.43278e-16 0.577828 0.592168
left 0.0148855 9.86666e-17 0.574337 0.589223
right -0.595721 4.80612e-15 -1.28325 -1.87897
bottom -0.280887 0 0.131088 -0.149799
frontAndBack 0 0 0 0
sum -0.847382 4.66151e-15 7.39772e-08 -0.847382


Wall heat fluxes [W]
topAndBottom 0 0 0 0
left 19.8401 0 0 19.8401
right -4.51197 0 0 -4.51197
frontAndBack 0 0 0 0
sum 15.3282 0 0 15.3282

Time = 4

DILUPBiCG:  Solving for Ux, Initial residual = 0.158001, Final residual = 0.00151566, No Iterations 1
DILUPBiCG:  Solving for Uy, Initial residual = 0.238383, Final residual = 0.00232535, No Iterations 1
DICPCG:  Solving for p_rgh, Initial residual = 0.156837, Final residual = 0.00110682, No Iterations 10
time step continuity errors : sum local = 0.00304672, global = -6.31966e-18, cumulative = 2.08317e-16
DILUPBiCG:  Solving for epsilon, Initial residual = 0.119144, Final residual = 9.5676e-05, No Iterations 2
DILUPBiCG:  Solving for k, Initial residual = 0.131547, Final residual = 0.000168411, No Iterations 2
DICPCG:  Solving for G, Initial residual = 0.0506818, Final residual = 0.00158166, No Iterations 13
Before T+T solve
BiCG:  Solving for T+T, Initial residual = 0.003889, Final residual = 1.88918e-06, No Iterations 11
Tres = -0.937137
TsRes = -1.4823
ExecutionTime = 0.03 s



Wall heat fluxes [W]
movingWall 0.0163487 2.59008e-16 0.637282 0.653631
left 0.0177239 -8.93105e-17 0.633232 0.650956
right -0.623144 -8.21894e-16 -1.46097 -2.08411
bottom -0.311214 0 0.190457 -0.120757
frontAndBack 0 0 0 0
sum -0.900285 -6.52196e-16 6.0328e-07 -0.900285


Wall heat fluxes [W]
topAndBottom 0 0 0 0
left 14.531 0 0 14.531
right -3.75293 0 0 -3.75293
frontAndBack 0 0 0 0
sum 10.7781 0 0 10.7781

Time = 5

DILUPBiCG:  Solving for Ux, Initial residual = 0.119463, Final residual = 0.00109964, No Iterations 1
DILUPBiCG:  Solving for Uy, Initial residual = 0.159479, Final residual = 0.00135169, No Iterations 1
DICPCG:  Solving for p_rgh, Initial residual = 0.108188, Final residual = 0.000935855, No Iterations 10
time step continuity errors : sum local = 0.00226734, global = -7.76392e-17, cumulative = 1.30678e-16
DILUPBiCG:  Solving for epsilon, Initial residual = 0.141008, Final residual = 0.000125986, No Iterations 2
DILUPBiCG:  Solving for k, Initial residual = 0.0983427, Final residual = 0.000148374, No Iterations 2
DICPCG:  Solving for G, Initial residual = 0.0543816, Final residual = 0.00153826, No Iterations 13
Before T+T solve
BiCG:  Solving for T+T, Initial residual = 0.00285425, Final residual = 1.02476e-06, No Iterations 11
Tres = -0.962576
TsRes = -0.967744
ExecutionTime = 0.03 s



Wall heat fluxes [W]
movingWall 0.0179021 6.84346e-16 0.714217 0.732119
left 0.020893 -8.67065e-17 0.709729 0.730622
right -0.64005 -4.98792e-15 -1.63376 -2.27381
bottom -0.335857 0 0.209819 -0.126038
frontAndBack 0 0 0 0
sum -0.937111 -4.39029e-15 7.72221e-07 -0.937111


Wall heat fluxes [W]
topAndBottom 0 0 0 0
left 10.8744 0 0 10.8744
right -3.37227 0 0 -3.37227
frontAndBack 0 0 0 0
sum 7.5021 0 0 7.5021

Time = 6

DILUPBiCG:  Solving for Ux, Initial residual = 0.0962184, Final residual = 0.000785526, No Iterations 1
DILUPBiCG:  Solving for Uy, Initial residual = 0.0934208, Final residual = 0.000720952, No Iterations 1
DICPCG:  Solving for p_rgh, Initial residual = 0.0974334, Final residual = 0.000562153, No Iterations 11
time step continuity errors : sum local = 0.00147002, global = 7.76557e-17, cumulative = 2.08334e-16
DILUPBiCG:  Solving for epsilon, Initial residual = 0.137259, Final residual = 0.000132595, No Iterations 2
DILUPBiCG:  Solving for k, Initial residual = 0.0813249, Final residual = 0.000248555, No Iterations 2
DICPCG:  Solving for G, Initial residual = 0.0349954, Final residual = 0.00105387, No Iterations 13
Before T+T solve
BiCG:  Solving for T+T, Initial residual = 0.00231065, Final residual = 1.81219e-06, No Iterations 10
Tres = -0.976422
TsRes = -0.644848
ExecutionTime = 0.03 s



Wall heat fluxes [W]
movingWall 0.0193607 -1.62252e-17 0.768335 0.787695
left 0.0248408 -9.24734e-18 0.763474 0.788315
right -0.649983 3.77657e-15 -1.76152 -2.41151
bottom -0.353445 0 0.229715 -0.123729
frontAndBack 0 0 0 0
sum -0.959226 3.7511e-15 3.71109e-07 -0.959225


Wall heat fluxes [W]
topAndBottom 0 0 0 0
left 8.21727 0 0 8.21727
right -3.14365 0 0 -3.14365
frontAndBack 0 0 0 0
sum 5.07362 0 0 5.07362

Time = 7

DILUPBiCG:  Solving for Ux, Initial residual = 0.0758716, Final residual = 0.000625233, No Iterations 1
DILUPBiCG:  Solving for Uy, Initial residual = 0.0743256, Final residual = 0.000539938, No Iterations 1
DICPCG:  Solving for p_rgh, Initial residual = 0.0817737, Final residual = 0.00042845, No Iterations 11
time step continuity errors : sum local = 0.00100318, global = -3.06719e-16, cumulative = -9.83849e-17
DILUPBiCG:  Solving for epsilon, Initial residual = 0.113443, Final residual = 0.000121537, No Iterations 2
DILUPBiCG:  Solving for k, Initial residual = 0.0715344, Final residual = 9.61766e-05, No Iterations 2
DICPCG:  Solving for G, Initial residual = 0.0245149, Final residual = 0.000704752, No Iterations 13
Before T+T solve
BiCG:  Solving for T+T, Initial residual = 0.00197561, Final residual = 1.55666e-06, No Iterations 8
Tres = -0.979268
TsRes = -0.433687
ExecutionTime = 0.03 s



Wall heat fluxes [W]
movingWall 0.0209851 5.02811e-16 0.808769 0.829754
left 0.0283942 1.04668e-16 0.803666 0.83206
right -0.654886 -1.64859e-14 -1.85135 -2.50624
bottom -0.362085 0 0.238919 -0.123166
frontAndBack 0 0 0 0
sum -0.967591 -1.58784e-14 2.97614e-07 -0.967591


Wall heat fluxes [W]
topAndBottom 0 0 0 0
left 6.444 0 0 6.444
right -2.99527 0 0 -2.99527
frontAndBack 0 0 0 0
sum 3.44873 0 0 3.44873

Time = 8

DILUPBiCG:  Solving for Ux, Initial residual = 0.0637695, Final residual = 0.00052621, No Iterations 1
DILUPBiCG:  Solving for Uy, Initial residual = 0.0670389, Final residual = 0.000472339, No Iterations 1
DICPCG:  Solving for p_rgh, Initial residual = 0.0730151, Final residual = 0.000614886, No Iterations 10
time step continuity errors : sum local = 0.00135335, global = -2.04653e-16, cumulative = -3.03038e-16
DILUPBiCG:  Solving for epsilon, Initial residual = 0.088842, Final residual = 0.000882713, No Iterations 2
DILUPBiCG:  Solving for k, Initial residual = 0.0661691, Final residual = 0.000106405, No Iterations 2
DICPCG:  Solving for G, Initial residual = 0.0168065, Final residual = 0.000478021, No Iterations 13
Before T+T solve
BiCG:  Solving for T+T, Initial residual = 0.00175581, Final residual = 6.03e-07, No Iterations 8
Tres = -0.975894
TsRes = -0.29382
ExecutionTime = 0.04 s



Wall heat fluxes [W]
movingWall 0.0225347 7.14179e-16 0.837723 0.860258
left 0.0306512 -1.38879e-16 0.832451 0.863102
right -0.656668 -1.01927e-14 -1.91249 -2.56915
bottom -0.364471 0 0.242313 -0.122159
frontAndBack 0 0 0 0
sum -0.967954 -9.61735e-15 1.22841e-07 -0.967953


Wall heat fluxes [W]
topAndBottom 0 0 0 0
left 5.24242 0 0 5.24242
right -2.89646 0 0 -2.89646
frontAndBack 0 0 0 0
sum 2.34596 0 0 2.34596

Time = 9

DILUPBiCG:  Solving for Ux, Initial residual = 0.0554817, Final residual = 0.000448924, No Iterations 1
DILUPBiCG:  Solving for Uy, Initial residual = 0.0620317, Final residual = 0.000427964, No Iterations 1
DICPCG:  Solving for p_rgh, Initial residual = 0.0726129, Final residual = 0.000526923, No Iterations 10
time step continuity errors : sum local = 0.00115278, global = -4.5437e-17, cumulative = -3.48475e-16
DILUPBiCG:  Solving for epsilon, Initial residual = 0.0705628, Final residual = 9.10332e-05, No Iterations 2
DILUPBiCG:  Solving for k, Initial residual = 0.0620624, Final residual = 0.000102328, No Iterations 2
DICPCG:  Solving for G, Initial residual = 0.0118633, Final residual = 0.000313659, No Iterations 13
Before T+T solve
BiCG:  Solving for T+T, Initial residual = 0.00161528, Final residual = 4.34101e-07, No Iterations 8
Tres = -0.969598
TsRes = -0.200144
ExecutionTime = 0.04 s



Wall heat fluxes [W]
movingWall 0.0240273 -1.30614e-16 0.858765 0.882792
left 0.0317535 2.68004e-16 0.853392 0.885146
right -0.656665 -3.40865e-15 -1.95357 -2.61024
bottom -0.363281 0 0.241416 -0.121865
frontAndBack 0 0 0 0
sum -0.964164 -3.27126e-15 1.12634e-07 -0.964164


Wall heat fluxes [W]
topAndBottom 0 0 0 0
left 4.43582 0 0 4.43582
right -2.82968 0 0 -2.82968
frontAndBack 0 0 0 0
sum 1.60614 0 0 1.60614

Time = 10

DILUPBiCG:  Solving for Ux, Initial residual = 0.0487586, Final residual = 0.000395577, No Iterations 1
DILUPBiCG:  Solving for Uy, Initial residual = 0.0576838, Final residual = 0.000387378, No Iterations 1
DICPCG:  Solving for p_rgh, Initial residual = 0.0727272, Final residual = 0.000499468, No Iterations 10
time step continuity errors : sum local = 0.00107771, global = 1.15441e-16, cumulative = -2.33033e-16
DILUPBiCG:  Solving for epsilon, Initial residual = 0.0568189, Final residual = 5.49178e-05, No Iterations 2
DILUPBiCG:  Solving for k, Initial residual = 0.0588025, Final residual = 9.20335e-05, No Iterations 2
DICPCG:  Solving for G, Initial residual = 0.0083539, Final residual = 0.000213131, No Iterations 13
Before T+T solve
BiCG:  Solving for T+T, Initial residual = 0.00152535, Final residual = 3.51261e-07, No Iterations 8
Tres = -0.962374
TsRes = -0.137079
ExecutionTime = 0.04 s



Wall heat fluxes [W]
movingWall 0.025486 5.2029e-17 0.87389 0.899376
left 0.0323805 1.31156e-16 0.868453 0.900833
right -0.655704 5.12071e-15 -1.9811 -2.63681
bottom -0.360795 0 0.23876 -0.122035
frontAndBack 0 0 0 0
sum -0.958633 5.3039e-15 4.94834e-08 -0.958633


Wall heat fluxes [W]
topAndBottom 0 0 0 0
left 3.89069 0 0 3.89069
right -2.78416 0 0 -2.78416
frontAndBack 0 0 0 0
sum 1.10652 0 0 1.10652

Time = 11

DILUPBiCG:  Solving for Ux, Initial residual = 0.0438651, Final residual = 0.000362713, No Iterations 1
DILUPBiCG:  Solving for Uy, Initial residual = 0.0536628, Final residual = 0.000361648, No Iterations 1
DICPCG:  Solving for p_rgh, Initial residual = 0.0715144, Final residual = 0.000474648, No Iterations 10
time step continuity errors : sum local = 0.00101047, global = -6.4487e-17, cumulative = -2.9752e-16
DILUPBiCG:  Solving for epsilon, Initial residual = 0.0463397, Final residual = 5.76092e-05, No Iterations 2
DILUPBiCG:  Solving for k, Initial residual = 0.0558084, Final residual = 8.05159e-05, No Iterations 2
DICPCG:  Solving for G, Initial residual = 0.00586329, Final residual = 0.000144443, No Iterations 13
Before T+T solve
BiCG:  Solving for T+T, Initial residual = 0.00146574, Final residual = 2.87608e-07, No Iterations 8
Tres = -0.955055
TsRes = -0.0942006
ExecutionTime = 0.04 s



Wall heat fluxes [W]
movingWall 0.0269397 -3.14342e-17 0.884648 0.911588
left 0.0327851 -6.50362e-17 0.87917 0.911955
right -0.654321 -2.13475e-15 -1.99971 -2.65403
bottom -0.357875 0 0.235889 -0.121986
frontAndBack 0 0 0 0
sum -0.952471 -2.23122e-15 2.94648e-08 -0.952471


Wall heat fluxes [W]
topAndBottom 0 0 0 0
left 3.51771 0 0 3.51771
right -2.75298 0 0 -2.75298
frontAndBack 0 0 0 0
sum 0.764725 0 0 0.764725

Time = 12

DILUPBiCG:  Solving for Ux, Initial residual = 0.0399678, Final residual = 0.000347194, No Iterations 1
DILUPBiCG:  Solving for Uy, Initial residual = 0.0503704, Final residual = 0.000335966, No Iterations 1
DICPCG:  Solving for p_rgh, Initial residual = 0.070014, Final residual = 0.000435659, No Iterations 10
time step continuity errors : sum local = 0.000924195, global = 1.30688e-16, cumulative = -1.66833e-16
DILUPBiCG:  Solving for epsilon, Initial residual = 0.0384868, Final residual = 5.98976e-05, No Iterations 2
DILUPBiCG:  Solving for k, Initial residual = 0.0531652, Final residual = 7.11872e-05, No Iterations 2
DICPCG:  Solving for G, Initial residual = 0.00420275, Final residual = 0.000100735, No Iterations 13
Before T+T solve
BiCG:  Solving for T+T, Initial residual = 0.00142574, Final residual = 1.41485e-06, No Iterations 7
Tres = -0.947899
TsRes = -0.0649928
ExecutionTime = 0.05 s



Wall heat fluxes [W]
movingWall 0.0284246 3.25181e-17 0.892433 0.920858
left 0.0329803 -1.51751e-16 0.886929 0.919909
right -0.652838 6.42005e-15 -2.01219 -2.66503
bottom -0.354675 0 0.232832 -0.121843
frontAndBack 0 0 0 0
sum -0.946108 6.30081e-15 2.48091e-09 -0.946108


Wall heat fluxes [W]
topAndBottom 0 0 0 0
left 3.26215 0 0 3.26215
right -2.73158 0 0 -2.73158
frontAndBack 0 0 0 0
sum 0.530576 0 0 0.530576

Time = 13

DILUPBiCG:  Solving for Ux, Initial residual = 0.0367699, Final residual = 0.00035851, No Iterations 1
DILUPBiCG:  Solving for Uy, Initial residual = 0.0473995, Final residual = 0.000302254, No Iterations 1
DICPCG:  Solving for p_rgh, Initial residual = 0.06662, Final residual = 0.00040951, No Iterations 10
time step continuity errors : sum local = 0.000878814, global = -2.08379e-16, cumulative = -3.75212e-16
DILUPBiCG:  Solving for epsilon, Initial residual = 0.0327214, Final residual = 5.7076e-05, No Iterations 2
DILUPBiCG:  Solving for k, Initial residual = 0.0509053, Final residual = 6.75824e-05, No Iterations 2
DICPCG:  Solving for G, Initial residual = 0.00306621, Final residual = 6.9838e-05, No Iterations 13
Before T+T solve
BiCG:  Solving for T+T, Initial residual = 0.00140055, Final residual = 1.16935e-06, No Iterations 7
Tres = -0.941032
TsRes = -0.0450687
ExecutionTime = 0.05 s



Wall heat fluxes [W]
movingWall 0.0299852 -1.30072e-16 0.898151 0.928136
left 0.0330351 6.50362e-18 0.892629 0.925664
right -0.651408 -9.84841e-15 -2.02049 -2.6719
bottom -0.351393 0 0.229712 -0.121681
frontAndBack 0 0 0 0
sum -0.939781 -9.97198e-15 -3.35182e-09 -0.939781


Wall heat fluxes [W]
topAndBottom 0 0 0 0
left 3.08767 0 0 3.08767
right -2.71674 0 0 -2.71674
frontAndBack 0 0 0 0
sum 0.370924 0 0 0.370924

Time = 14

DILUPBiCG:  Solving for Ux, Initial residual = 0.0340617, Final residual = 6.16612e-06, No Iterations 2
DILUPBiCG:  Solving for Uy, Initial residual = 0.0450691, Final residual = 0.000279227, No Iterations 1
DICPCG:  Solving for p_rgh, Initial residual = 0.0624525, Final residual = 0.000410358, No Iterations 10
time step continuity errors : sum local = 0.000888804, global = 8.36445e-17, cumulative = -2.91567e-16
DILUPBiCG:  Solving for epsilon, Initial residual = 0.0284682, Final residual = 4.66585e-05, No Iterations 2
DILUPBiCG:  Solving for k, Initial residual = 0.0493284, Final residual = 6.55896e-05, No Iterations 2
DICPCG:  Solving for G, Initial residual = 0.00227754, Final residual = 0.000214438, No Iterations 11
Before T+T solve
BiCG:  Solving for T+T, Initial residual = 0.00139049, Final residual = 9.81104e-07, No Iterations 7
Tres = -0.93441
TsRes = -0.0315056
ExecutionTime = 0.05 s



Wall heat fluxes [W]
movingWall 0.0316791 -5.2029e-17 0.902408 0.934087
left 0.0330513 9.10507e-17 0.896874 0.929926
right -0.650104 4.7204e-15 -2.02595 -2.67605
bottom -0.348155 0 0.226668 -0.121487
frontAndBack 0 0 0 0
sum -0.933528 4.75942e-15 9.53834e-08 -0.933528


Wall heat fluxes [W]
topAndBottom 0 0 0 0
left 2.96812 0 0 2.96812
right -2.70641 0 0 -2.70641
frontAndBack 0 0 0 0
sum 0.261707 0 0 0.261707

Time = 15

DILUPBiCG:  Solving for Ux, Initial residual = 0.0316528, Final residual = 6.35403e-06, No Iterations 2
DILUPBiCG:  Solving for Uy, Initial residual = 0.0435909, Final residual = 0.000263392, No Iterations 1
DICPCG:  Solving for p_rgh, Initial residual = 0.0565895, Final residual = 0.00042158, No Iterations 10
time step continuity errors : sum local = 0.000922689, global = -9.70117e-17, cumulative = -3.88579e-16
DILUPBiCG:  Solving for epsilon, Initial residual = 0.0254585, Final residual = 3.51685e-05, No Iterations 2
DILUPBiCG:  Solving for k, Initial residual = 0.0483435, Final residual = 6.4975e-05, No Iterations 2
DICPCG:  Solving for G, Initial residual = 0.00188379, Final residual = 0.000179542, No Iterations 12
Before T+T solve
BiCG:  Solving for T+T, Initial residual = 0.00138612, Final residual = 8.24117e-07, No Iterations 7
Tres = -0.928212
TsRes = -0.0222873
ExecutionTime = 0.05 s



Wall heat fluxes [W]
movingWall 0.0336003 -6.41691e-16 0.905642 0.939242
left 0.0331433 6.07005e-17 0.900101 0.933245
right -0.648944 -4.28713e-15 -2.02949 -2.67844
bottom -0.345382 0 0.223751 -0.121631
frontAndBack 0 0 0 0
sum -0.927582 -4.86812e-15 -1.98806e-07 -0.927582


Wall heat fluxes [W]
topAndBottom 0 0 0 0
left 2.88634 0 0 2.88634
right -2.69916 0 0 -2.69916
frontAndBack 0 0 0 0
sum 0.187182 0 0 0.187182

Time = 16

DILUPBiCG:  Solving for Ux, Initial residual = 0.0295044, Final residual = 5.93342e-06, No Iterations 2
DILUPBiCG:  Solving for Uy, Initial residual = 0.0423719, Final residual = 0.000254599, No Iterations 1
DICPCG:  Solving for p_rgh, Initial residual = 0.0536292, Final residual = 0.000493928, No Iterations 9
time step continuity errors : sum local = 0.00110057, global = -7.19999e-17, cumulative = -4.60579e-16
DILUPBiCG:  Solving for epsilon, Initial residual = 0.0234957, Final residual = 2.60928e-05, No Iterations 2
DILUPBiCG:  Solving for k, Initial residual = 0.047968, Final residual = 6.53744e-05, No Iterations 2
DICPCG:  Solving for G, Initial residual = 0.00156593, Final residual = 4.34076e-05, No Iterations 13
Before T+T solve
BiCG:  Solving for T+T, Initial residual = 0.00138524, Final residual = 1.03338e-06, No Iterations 6
Tres = -0.922014
TsRes = -0.0160684
ExecutionTime = 0.06 s



Wall heat fluxes [W]
movingWall 0.0358072 4.50918e-16 0.907986 0.943793
left 0.0333797 -2.60145e-17 0.902437 0.935817
right -0.647921 -4.71033e-15 -2.03192 -2.67984
bottom -0.342825 0 0.221496 -0.121329
frontAndBack 0 0 0 0
sum -0.921559 -4.28543e-15 -5.79563e-08 -0.921559


Wall heat fluxes [W]
topAndBottom 0 0 0 0
left 2.82906 0 0 2.82906
right -2.69417 0 0 -2.69417
frontAndBack 0 0 0 0
sum 0.134895 0 0 0.134895

Time = 17

DILUPBiCG:  Solving for Ux, Initial residual = 0.0279383, Final residual = 5.22192e-06, No Iterations 2
DILUPBiCG:  Solving for Uy, Initial residual = 0.0411154, Final residual = 0.00026095, No Iterations 1
DICPCG:  Solving for p_rgh, Initial residual = 0.0519595, Final residual = 0.000324709, No Iterations 10
time step continuity errors : sum local = 0.000734974, global = 2.24199e-16, cumulative = -2.3638e-16
DILUPBiCG:  Solving for epsilon, Initial residual = 0.0222421, Final residual = 2.00275e-05, No Iterations 2
DILUPBiCG:  Solving for k, Initial residual = 0.0478008, Final residual = 6.83582e-05, No Iterations 2
DICPCG:  Solving for G, Initial residual = 0.00115156, Final residual = 3.50996e-05, No Iterations 13
Before T+T solve
BiCG:  Solving for T+T, Initial residual = 0.00138908, Final residual = 6.796e-07, No Iterations 6
Tres = -0.91539
TsRes = -0.0117913
ExecutionTime = 0.06 s



Wall heat fluxes [W]
movingWall 0.0383657 -7.28406e-16 0.909896 0.948262
left 0.0339304 -3.4686e-17 0.904343 0.938273
right -0.647005 1.11472e-14 -2.0334 -2.68041
bottom -0.340342 0 0.219164 -0.121178
frontAndBack 0 0 0 0
sum -0.915052 1.03842e-14 -3.33612e-08 -0.915052


Wall heat fluxes [W]
topAndBottom 0 0 0 0
left 2.79112 0 0 2.79112
right -2.69041 0 0 -2.69041
frontAndBack 0 0 0 0
sum 0.100708 0 0 0.100708

Time = 18

DILUPBiCG:  Solving for Ux, Initial residual = 0.0264459, Final residual = 4.56612e-06, No Iterations 2
DILUPBiCG:  Solving for Uy, Initial residual = 0.0404991, Final residual = 0.000277506, No Iterations 1
DICPCG:  Solving for p_rgh, Initial residual = 0.0495553, Final residual = 0.000283551, No Iterations 10
time step continuity errors : sum local = 0.000665697, global = 7.33213e-17, cumulative = -1.63058e-16
DILUPBiCG:  Solving for epsilon, Initial residual = 0.0213566, Final residual = 1.76804e-05, No Iterations 2
DILUPBiCG:  Solving for k, Initial residual = 0.0477853, Final residual = 7.21392e-05, No Iterations 2
DICPCG:  Solving for G, Initial residual = 0.00101583, Final residual = 3.55435e-05, No Iterations 13
Before T+T solve
BiCG:  Solving for T+T, Initial residual = 0.00139508, Final residual = 6.86078e-07, No Iterations 6
Tres = -0.908184
TsRes = -0.00893135
ExecutionTime = 0.06 s



Wall heat fluxes [W]
movingWall 0.0413472 3.4686e-16 0.911424 0.952771
left 0.0348899 -1.7343e-17 0.905865 0.940755
right -0.646168 3.43127e-15 -2.03431 -2.68048
bottom -0.337993 0 0.217026 -0.120967
frontAndBack 0 0 0 0
sum -0.907924 3.76079e-15 -4.23639e-08 -0.907924


Wall heat fluxes [W]
topAndBottom 0 0 0 0
left 2.76511 0 0 2.76511
right -2.68762 0 0 -2.68762
frontAndBack 0 0 0 0
sum 0.0774896 0 0 0.0774896

Time = 19

DILUPBiCG:  Solving for Ux, Initial residual = 0.0251009, Final residual = 4.04191e-06, No Iterations 2
DILUPBiCG:  Solving for Uy, Initial residual = 0.0401636, Final residual = 0.000298495, No Iterations 1
DICPCG:  Solving for p_rgh, Initial residual = 0.0465989, Final residual = 0.000242794, No Iterations 10
time step continuity errors : sum local = 0.000579051, global = 1.05879e-18, cumulative = -1.62e-16
DILUPBiCG:  Solving for epsilon, Initial residual = 0.0206885, Final residual = 1.82913e-05, No Iterations 2
DILUPBiCG:  Solving for k, Initial residual = 0.0478949, Final residual = 7.62671e-05, No Iterations 2
DICPCG:  Solving for G, Initial residual = 0.000901725, Final residual = 8.40052e-05, No Iterations 12
Before T+T solve
BiCG:  Solving for T+T, Initial residual = 0.00140236, Final residual = 7.78129e-07, No Iterations 6
Tres = -0.900118
TsRes = -0.00707094
ExecutionTime = 0.06 s



Wall heat fluxes [W]
movingWall 0.0448232 4.16232e-16 0.912708 0.957531
left 0.0364116 -1.7343e-16 0.907145 0.943556
right -0.645375 1.28414e-15 -2.03484 -2.68022
bottom -0.335768 0 0.214988 -0.12078
frontAndBack 0 0 0 0
sum -0.899908 1.52694e-15 -1.21638e-07 -0.899908


Wall heat fluxes [W]
topAndBottom 0 0 0 0
left 2.74811 0 0 2.74811
right -2.68547 0 0 -2.68547
frontAndBack 0 0 0 0
sum 0.0626325 0 0 0.0626325

Time = 20

DILUPBiCG:  Solving for Ux, Initial residual = 0.0238892, Final residual = 3.63135e-06, No Iterations 2
DILUPBiCG:  Solving for Uy, Initial residual = 0.0399971, Final residual = 0.000309445, No Iterations 1
DICPCG:  Solving for p_rgh, Initial residual = 0.0440108, Final residual = 0.000222189, No Iterations 10
time step continuity errors : sum local = 0.000553278, global = 7.6234e-17, cumulative = -8.57657e-17
DILUPBiCG:  Solving for epsilon, Initial residual = 0.0205808, Final residual = 2.02379e-05, No Iterations 2
DILUPBiCG:  Solving for k, Initial residual = 0.0481555, Final residual = 8.08551e-05, No Iterations 2
DICPCG:  Solving for G, Initial residual = 0.000889894, Final residual = 7.71766e-05, No Iterations 12
Before T+T solve
BiCG:  Solving for T+T, Initial residual = 0.00140742, Final residual = 8.67717e-07, No Iterations 6
Tres = -0.890837
TsRes = -0.00588949
ExecutionTime = 0.07 s



Wall heat fluxes [W]
movingWall 0.048923 3.12174e-16 0.913806 0.962729
left 0.0386675 1.7343e-16 0.908238 0.946906
right -0.644593 3.43212e-15 -2.03513 -2.67972
bottom -0.333656 0 0.213083 -0.120574
frontAndBack 0 0 0 0
sum -0.890659 3.91772e-15 -9.80246e-08 -0.890659


Wall heat fluxes [W]
topAndBottom 0 0 0 0
left 2.73706 0 0 2.73706
right -2.68374 0 0 -2.68374
frontAndBack 0 0 0 0
sum 0.053318 0 0 0.053318

Time = 21

DILUPBiCG:  Solving for Ux, Initial residual = 0.0225517, Final residual = 3.28697e-06, No Iterations 2
DILUPBiCG:  Solving for Uy, Initial residual = 0.0396861, Final residual = 0.000315635, No Iterations 1
DICPCG:  Solving for p_rgh, Initial residual = 0.0422004, Final residual = 0.000274394, No Iterations 10
time step continuity errors : sum local = 0.000694126, global = -1.16467e-17, cumulative = -9.74124e-17
DILUPBiCG:  Solving for epsilon, Initial residual = 0.0205817, Final residual = 2.19883e-05, No Iterations 2
DILUPBiCG:  Solving for k, Initial residual = 0.0486004, Final residual = 8.64621e-05, No Iterations 2
DICPCG:  Solving for G, Initial residual = 0.000820957, Final residual = 7.24496e-05, No Iterations 12
Before T+T solve
BiCG:  Solving for T+T, Initial residual = 0.00140939, Final residual = 9.30639e-07, No Iterations 6
Tres = -0.88009
TsRes = -0.00519318
ExecutionTime = 0.07 s



Wall heat fluxes [W]
movingWall 0.0537012 2.77488e-16 0.914782 0.968483
left 0.0418322 -3.4686e-17 0.90921 0.951042
right -0.643792 -2.57595e-15 -2.03526 -2.67905
bottom -0.331671 0 0.21127 -0.120401
frontAndBack 0 0 0 0
sum -0.879929 -2.33315e-15 -9.2295e-08 -0.879929


Wall heat fluxes [W]
topAndBottom 0 0 0 0
left 2.73039 0 0 2.73039
right -2.68227 0 0 -2.68227
frontAndBack 0 0 0 0
sum 0.0481234 0 0 0.0481234

Time = 22

DILUPBiCG:  Solving for Ux, Initial residual = 0.0211011, Final residual = 3.14742e-06, No Iterations 2
DILUPBiCG:  Solving for Uy, Initial residual = 0.0390114, Final residual = 0.000314644, No Iterations 1
DICPCG:  Solving for p_rgh, Initial residual = 0.0417078, Final residual = 0.000295841, No Iterations 10
time step continuity errors : sum local = 0.000766812, global = 1.30231e-16, cumulative = 3.28189e-17
DILUPBiCG:  Solving for epsilon, Initial residual = 0.0204874, Final residual = 2.3439e-05, No Iterations 2
DILUPBiCG:  Solving for k, Initial residual = 0.049158, Final residual = 9.16265e-05, No Iterations 2
DICPCG:  Solving for G, Initial residual = 0.000775509, Final residual = 7.50341e-05, No Iterations 12
Before T+T solve
BiCG:  Solving for T+T, Initial residual = 0.00140699, Final residual = 9.47379e-07, No Iterations 6
Tres = -0.867912
TsRes = -0.00481461
ExecutionTime = 0.07 s



Wall heat fluxes [W]
movingWall 0.0591286 4.16232e-16 0.915656 0.974785
left 0.0459979 -2.77488e-16 0.91008 0.956078
right -0.642946 6.43019e-15 -2.03533 -2.67827
bottom -0.329941 0 0.209589 -0.120352
frontAndBack 0 0 0 0
sum -0.86776 6.56893e-15 -1.13287e-07 -0.867761


Wall heat fluxes [W]
topAndBottom 0 0 0 0
left 2.72648 0 0 2.72648
right -2.68094 0 0 -2.68094
frontAndBack 0 0 0 0
sum 0.045538 0 0 0.045538

Time = 23

DILUPBiCG:  Solving for Ux, Initial residual = 0.019671, Final residual = 3.13052e-06, No Iterations 2
DILUPBiCG:  Solving for Uy, Initial residual = 0.0382352, Final residual = 0.000323049, No Iterations 1
DICPCG:  Solving for p_rgh, Initial residual = 0.0403586, Final residual = 0.000351467, No Iterations 10
time step continuity errors : sum local = 0.00097041, global = -1.2229e-16, cumulative = -8.94715e-17
DILUPBiCG:  Solving for epsilon, Initial residual = 0.0200423, Final residual = 2.46839e-05, No Iterations 2
DILUPBiCG:  Solving for k, Initial residual = 0.0494088, Final residual = 9.59762e-05, No Iterations 2
DICPCG:  Solving for G, Initial residual = 0.000700514, Final residual = 2.64942e-05, No Iterations 13
Before T+T solve
BiCG:  Solving for T+T, Initial residual = 0.00139979, Final residual = 9.47583e-07, No Iterations 6
Tres = -0.854099
TsRes = -0.00460381
ExecutionTime = 0.07 s



Wall heat fluxes [W]
movingWall 0.0651744 9.71208e-16 0.9164 0.981575
left 0.0512865 3.4686e-17 0.91082 0.962107
right -0.642034 -7.71921e-15 -2.03542 -2.67746
bottom -0.328379 0 0.208202 -0.120177
frontAndBack 0 0 0 0
sum -0.853952 -6.71331e-15 -3.02695e-08 -0.853952


Wall heat fluxes [W]
topAndBottom 0 0 0 0
left 2.7239 0 0 2.7239
right -2.6797 0 0 -2.6797
frontAndBack 0 0 0 0
sum 0.0442035 0 0 0.0442035

Time = 24

DILUPBiCG:  Solving for Ux, Initial residual = 0.0182411, Final residual = 3.24695e-06, No Iterations 2
DILUPBiCG:  Solving for Uy, Initial residual = 0.0369811, Final residual = 0.00033054, No Iterations 1
DICPCG:  Solving for p_rgh, Initial residual = 0.038267, Final residual = 0.00027169, No Iterations 11
time step continuity errors : sum local = 0.000799225, global = -9.15854e-17, cumulative = -1.81057e-16
DILUPBiCG:  Solving for epsilon, Initial residual = 0.0193226, Final residual = 2.51794e-05, No Iterations 2
DILUPBiCG:  Solving for k, Initial residual = 0.0494995, Final residual = 9.92041e-05, No Iterations 2
DICPCG:  Solving for G, Initial residual = 0.000642969, Final residual = 2.49487e-05, No Iterations 13
Before T+T solve
BiCG:  Solving for T+T, Initial residual = 0.00138879, Final residual = 9.39741e-07, No Iterations 6
Tres = -0.838499
TsRes = -0.00455785
ExecutionTime = 0.08 s



Wall heat fluxes [W]
movingWall 0.0717866 -5.54976e-16 0.917111 0.988897
left 0.0577615 4.16232e-16 0.911526 0.969288
right -0.641043 -3.86151e-15 -2.0355 -2.67654
bottom -0.326856 0 0.206865 -0.119991
frontAndBack 0 0 0 0
sum -0.838351 -4.00025e-15 -3.42209e-08 -0.838351


Wall heat fluxes [W]
topAndBottom 0 0 0 0
left 2.72295 0 0 2.72295
right -2.6785 0 0 -2.6785
frontAndBack 0 0 0 0
sum 0.0444562 0 0 0.0444562

Time = 25

DILUPBiCG:  Solving for Ux, Initial residual = 0.0168669, Final residual = 3.4266e-06, No Iterations 2
DILUPBiCG:  Solving for Uy, Initial residual = 0.0355736, Final residual = 0.000335888, No Iterations 1
DICPCG:  Solving for p_rgh, Initial residual = 0.0366884, Final residual = 0.000321659, No Iterations 11
time step continuity errors : sum local = 0.000966863, global = -1.52995e-16, cumulative = -3.34052e-16
DILUPBiCG:  Solving for epsilon, Initial residual = 0.018093, Final residual = 2.46489e-05, No Iterations 2
DILUPBiCG:  Solving for k, Initial residual = 0.0491551, Final residual = 0.000100567, No Iterations 2
DICPCG:  Solving for G, Initial residual = 0.000601145, Final residual = 2.28406e-05, No Iterations 13
Before T+T solve
BiCG:  Solving for T+T, Initial residual = 0.00137093, Final residual = 9.28299e-07, No Iterations 6
Tres = -0.821157
TsRes = -0.00460281
ExecutionTime = 0.08 s



Wall heat fluxes [W]
movingWall 0.0789116 -1.2487e-15 0.9178 0.996712
left 0.065446 2.08116e-16 0.912212 0.977658
right -0.639972 -6.43649e-15 -2.03557 -2.67554
bottom -0.325392 0 0.20556 -0.119832
frontAndBack 0 0 0 0
sum -0.821007 -7.47707e-15 -3.10199e-08 -0.821007


Wall heat fluxes [W]
topAndBottom 0 0 0 0
left 2.72264 0 0 2.72264
right -2.67729 0 0 -2.67729
frontAndBack 0 0 0 0
sum 0.0453429 0 0 0.0453429

Time = 26

DILUPBiCG:  Solving for Ux, Initial residual = 0.0155584, Final residual = 3.55023e-06, No Iterations 2
DILUPBiCG:  Solving for Uy, Initial residual = 0.0339907, Final residual = 0.000338052, No Iterations 1
DICPCG:  Solving for p_rgh, Initial residual = 0.0337145, Final residual = 0.000168055, No Iterations 12
time step continuity errors : sum local = 0.0005053, global = 2.88256e-16, cumulative = -4.57963e-17
DILUPBiCG:  Solving for epsilon, Initial residual = 0.0167184, Final residual = 2.41908e-05, No Iterations 2
DILUPBiCG:  Solving for k, Initial residual = 0.0482926, Final residual = 0.000100467, No Iterations 2
DICPCG:  Solving for G, Initial residual = 0.000562803, Final residual = 2.07727e-05, No Iterations 13
Before T+T solve
BiCG:  Solving for T+T, Initial residual = 0.00134901, Final residual = 9.15705e-07, No Iterations 6
Tres = -0.80217
TsRes = -0.00467037
ExecutionTime = 0.08 s



Wall heat fluxes [W]
movingWall 0.0864682 -1.38744e-15 0.918465 1.00493
left 0.0743085 -3.4686e-17 0.912874 0.987182
right -0.638824 1.75852e-14 -2.03567 -2.67449
bottom -0.323969 0 0.204329 -0.119641
frontAndBack 0 0 0 0
sum -0.802017 1.61631e-14 -3.05487e-08 -0.802017


Wall heat fluxes [W]
topAndBottom 0 0 0 0
left 2.72235 0 0 2.72235
right -2.67608 0 0 -2.67608
frontAndBack 0 0 0 0
sum 0.0462746 0 0 0.0462746

Time = 27

DILUPBiCG:  Solving for Ux, Initial residual = 0.0143952, Final residual = 4.09621e-06, No Iterations 2
DILUPBiCG:  Solving for Uy, Initial residual = 0.0319623, Final residual = 3.06573e-06, No Iterations 2
DICPCG:  Solving for p_rgh, Initial residual = 0.0302957, Final residual = 0.000157582, No Iterations 12
time step continuity errors : sum local = 0.000481638, global = -3.35107e-16, cumulative = -3.80904e-16
DILUPBiCG:  Solving for epsilon, Initial residual = 0.0154006, Final residual = 2.37042e-05, No Iterations 2
DILUPBiCG:  Solving for k, Initial residual = 0.0469839, Final residual = 9.91025e-05, No Iterations 2
DICPCG:  Solving for G, Initial residual = 0.000511147, Final residual = 1.83019e-05, No Iterations 13
Before T+T solve
BiCG:  Solving for T+T, Initial residual = 0.00132062, Final residual = 8.92919e-07, No Iterations 6
Tres = -0.781711
TsRes = -0.00474126
ExecutionTime = 0.08 s



Wall heat fluxes [W]
movingWall 0.0943761 0 0.919129 1.0135
left 0.0842546 -7.28406e-16 0.913534 0.997789
right -0.637612 -1.58693e-14 -2.03578 -2.67339
bottom -0.322574 0 0.203113 -0.11946
frontAndBack 0 0 0 0
sum -0.781555 -1.65977e-14 -2.36068e-08 -0.781555


Wall heat fluxes [W]
topAndBottom 0 0 0 0
left 2.72202 0 0 2.72202
right -2.67484 0 0 -2.67484
frontAndBack 0 0 0 0
sum 0.0471758 0 0 0.0471758

Time = 28

DILUPBiCG:  Solving for Ux, Initial residual = 0.0132587, Final residual = 5.68086e-06, No Iterations 2
DILUPBiCG:  Solving for Uy, Initial residual = 0.0298133, Final residual = 3.02415e-06, No Iterations 2
DICPCG:  Solving for p_rgh, Initial residual = 0.0275291, Final residual = 0.000141344, No Iterations 12
time step continuity errors : sum local = 0.000436901, global = -1.4929e-16, cumulative = -5.30193e-16
DILUPBiCG:  Solving for epsilon, Initial residual = 0.0139934, Final residual = 2.33905e-05, No Iterations 2
DILUPBiCG:  Solving for k, Initial residual = 0.0452604, Final residual = 9.68953e-05, No Iterations 2
DICPCG:  Solving for G, Initial residual = 0.000464985, Final residual = 1.60043e-05, No Iterations 13
Before T+T solve
BiCG:  Solving for T+T, Initial residual = 0.00128587, Final residual = 8.83926e-07, No Iterations 6
Tres = -0.760019
TsRes = -0.00478305
ExecutionTime = 0.09 s



Wall heat fluxes [W]
movingWall 0.102532 -2.77488e-16 0.919785 1.02232
left 0.0951351 4.16232e-16 0.914188 1.00932
right -0.636349 -7.29127e-15 -2.03591 -2.67226
bottom -0.321179 0 0.201933 -0.119245
frontAndBack 0 0 0 0
sum -0.759861 -7.15253e-15 -1.80055e-08 -0.759861


Wall heat fluxes [W]
topAndBottom 0 0 0 0
left 2.72127 0 0 2.72127
right -2.67359 0 0 -2.67359
frontAndBack 0 0 0 0
sum 0.0476806 0 0 0.0476806

Time = 29

DILUPBiCG:  Solving for Ux, Initial residual = 0.0122285, Final residual = 1.29809e-05, No Iterations 2
DILUPBiCG:  Solving for Uy, Initial residual = 0.0273465, Final residual = 2.91399e-06, No Iterations 2
DICPCG:  Solving for p_rgh, Initial residual = 0.0251209, Final residual = 0.000209462, No Iterations 11
time step continuity errors : sum local = 0.000665698, global = 5.54542e-17, cumulative = -4.74739e-16
DILUPBiCG:  Solving for epsilon, Initial residual = 0.0129525, Final residual = 2.42066e-05, No Iterations 2
DILUPBiCG:  Solving for k, Initial residual = 0.043386, Final residual = 9.32208e-05, No Iterations 2
DICPCG:  Solving for G, Initial residual = 0.000416697, Final residual = 1.31366e-05, No Iterations 13
Before T+T solve
BiCG:  Solving for T+T, Initial residual = 0.00124368, Final residual = 8.94718e-07, No Iterations 6
Tres = -0.737394
TsRes = -0.00479558
ExecutionTime = 0.09 s



Wall heat fluxes [W]
movingWall 0.110827 6.9372e-16 0.92045 1.03128
left 0.106757 -1.17932e-15 0.914852 1.02161
right -0.635054 4.30918e-16 -2.03604 -2.67109
bottom -0.319765 0 0.200737 -0.119029
frontAndBack 0 0 0 0
sum -0.737236 -5.46864e-17 -8.88615e-09 -0.737236


Wall heat fluxes [W]
topAndBottom 0 0 0 0
left 2.7202 0 0 2.7202
right -2.67233 0 0 -2.67233
frontAndBack 0 0 0 0
sum 0.0478732 0 0 0.0478732

Time = 30

DILUPBiCG:  Solving for Ux, Initial residual = 0.0112883, Final residual = 3.19715e-05, No Iterations 2
DILUPBiCG:  Solving for Uy, Initial residual = 0.0247259, Final residual = 2.73778e-06, No Iterations 2
DICPCG:  Solving for p_rgh, Initial residual = 0.0231576, Final residual = 0.000122194, No Iterations 11
time step continuity errors : sum local = 0.000380604, global = 8.2718e-17, cumulative = -3.92021e-16
DILUPBiCG:  Solving for epsilon, Initial residual = 0.0120886, Final residual = 2.79212e-05, No Iterations 2
DILUPBiCG:  Solving for k, Initial residual = 0.0411531, Final residual = 8.95904e-05, No Iterations 2
DICPCG:  Solving for G, Initial residual = 0.000374005, Final residual = 2.3412e-05, No Iterations 11
Before T+T solve
BiCG:  Solving for T+T, Initial residual = 0.00119986, Final residual = 9.15419e-07, No Iterations 6
Tres = -0.714244
TsRes = -0.00476114
ExecutionTime = 0.09 s



Wall heat fluxes [W]
movingWall 0.11916 5.54976e-16 0.921122 1.04028
left 0.1189 -2.42802e-16 0.915523 1.03442
right -0.633748 5.58025e-15 -2.03617 -2.66992
bottom -0.318399 0 0.199529 -0.11887
frontAndBack 0 0 0 0
sum -0.714087 5.89243e-15 -1.07887e-08 -0.714087


Wall heat fluxes [W]
topAndBottom 0 0 0 0
left 2.71859 0 0 2.71859
right -2.67107 0 0 -2.67107
frontAndBack 0 0 0 0
sum 0.0475231 0 0 0.0475231

Time = 31

DILUPBiCG:  Solving for Ux, Initial residual = 0.0104788, Final residual = 8.29941e-06, No Iterations 2
DILUPBiCG:  Solving for Uy, Initial residual = 0.0220497, Final residual = 2.6623e-06, No Iterations 2
DICPCG:  Solving for p_rgh, Initial residual = 0.0214128, Final residual = 9.22202e-05, No Iterations 11
time step continuity errors : sum local = 0.000283426, global = 2.32936e-16, cumulative = -1.59085e-16
DILUPBiCG:  Solving for epsilon, Initial residual = 0.0114714, Final residual = 4.22879e-05, No Iterations 2
DILUPBiCG:  Solving for k, Initial residual = 0.038994, Final residual = 9.24168e-05, No Iterations 2
DICPCG:  Solving for G, Initial residual = 0.000355264, Final residual = 2.12339e-05, No Iterations 11
Before T+T solve
BiCG:  Solving for T+T, Initial residual = 0.00115768, Final residual = 9.28987e-07, No Iterations 6
Tres = -0.690794
TsRes = -0.00466335
ExecutionTime = 0.09 s



Wall heat fluxes [W]
movingWall 0.127437 2.77488e-16 0.921767 1.0492
left 0.13133 6.24348e-16 0.91617 1.0475
right -0.632446 1.02968e-14 -2.03634 -2.66878
bottom -0.316961 0 0.198401 -0.118559
frontAndBack 0 0 0 0
sum -0.69064 1.11987e-14 -7.07639e-08 -0.69064


Wall heat fluxes [W]
topAndBottom 0 0 0 0
left 2.71633 0 0 2.71633
right -2.66982 0 0 -2.66982
frontAndBack 0 0 0 0
sum 0.0465078 0 0 0.0465078

Time = 32

DILUPBiCG:  Solving for Ux, Initial residual = 0.00976286, Final residual = 5.41578e-06, No Iterations 2
DILUPBiCG:  Solving for Uy, Initial residual = 0.0195022, Final residual = 2.70557e-06, No Iterations 2
DICPCG:  Solving for p_rgh, Initial residual = 0.0198214, Final residual = 0.000151479, No Iterations 7
time step continuity errors : sum local = 0.000649621, global = 3.37225e-16, cumulative = 1.7814e-16
DILUPBiCG:  Solving for epsilon, Initial residual = 0.0108728, Final residual = 3.49109e-07, No Iterations 3
DILUPBiCG:  Solving for k, Initial residual = 0.0367525, Final residual = 6.67388e-05, No Iterations 2
DICPCG:  Solving for G, Initial residual = 0.000378362, Final residual = 3.08415e-05, No Iterations 12
Before T+T solve
BiCG:  Solving for T+T, Initial residual = 0.00111441, Final residual = 9.5094e-07, No Iterations 6
Tres = -0.667303
TsRes = -0.0045793
ExecutionTime = 0.1 s



Wall heat fluxes [W]
movingWall 0.135574 0 0.922462 1.05804
left 0.143816 7.63092e-16 0.916866 1.06068
right -0.631163 1.93082e-14 -2.03645 -2.66761
bottom -0.315379 0 0.197117 -0.118262
frontAndBack 0 0 0 0
sum -0.667152 2.00713e-14 -1.96039e-08 -0.667152


Wall heat fluxes [W]
topAndBottom 0 0 0 0
left 2.71436 0 0 2.71436
right -2.6686 0 0 -2.6686
frontAndBack 0 0 0 0
sum 0.0457588 0 0 0.0457588

Time = 33

DILUPBiCG:  Solving for Ux, Initial residual = 0.0090923, Final residual = 4.30617e-06, No Iterations 2
DILUPBiCG:  Solving for Uy, Initial residual = 0.0172528, Final residual = 2.72923e-06, No Iterations 2
DICPCG:  Solving for p_rgh, Initial residual = 0.0185064, Final residual = 0.000174769, No Iterations 7
time step continuity errors : sum local = 0.000783048, global = -7.51742e-17, cumulative = 1.02966e-16
DILUPBiCG:  Solving for epsilon, Initial residual = 0.0103493, Final residual = 1.95581e-05, No Iterations 2
DILUPBiCG:  Solving for k, Initial residual = 0.035114, Final residual = 6.55515e-05, No Iterations 2
DICPCG:  Solving for G, Initial residual = 0.00040065, Final residual = 2.73261e-05, No Iterations 12
Before T+T solve
BiCG:  Solving for T+T, Initial residual = 0.00107178, Final residual = 9.56224e-07, No Iterations 6
Tres = -0.644037
TsRes = -0.00448543
ExecutionTime = 0.1 s



Wall heat fluxes [W]
movingWall 0.143504 1.10995e-15 0.923184 1.06669
left 0.156126 0 0.91759 1.07372
right -0.629913 -5.57138e-15 -2.03651 -2.66642
bottom -0.313607 0 0.195734 -0.117873
frontAndBack 0 0 0 0
sum -0.643889 -4.46143e-15 6.16884e-09 -0.643889


Wall heat fluxes [W]
topAndBottom 0 0 0 0
left 2.7122 0 0 2.7122
right -2.66741 0 0 -2.66741
frontAndBack 0 0 0 0
sum 0.044798 0 0 0.044798

Time = 34

DILUPBiCG:  Solving for Ux, Initial residual = 0.00852046, Final residual = 3.75493e-06, No Iterations 2
DILUPBiCG:  Solving for Uy, Initial residual = 0.0153204, Final residual = 4.17941e-06, No Iterations 2
DICPCG:  Solving for p_rgh, Initial residual = 0.0175186, Final residual = 0.000126669, No Iterations 7
time step continuity errors : sum local = 0.000579556, global = -1.18849e-16, cumulative = -1.58832e-17
DILUPBiCG:  Solving for epsilon, Initial residual = 0.00993247, Final residual = 9.03442e-06, No Iterations 2
DILUPBiCG:  Solving for k, Initial residual = 0.0335149, Final residual = 6.09742e-05, No Iterations 2
DICPCG:  Solving for G, Initial residual = 0.000430328, Final residual = 3.20375e-05, No Iterations 12
Before T+T solve
BiCG:  Solving for T+T, Initial residual = 0.00103344, Final residual = 9.58065e-07, No Iterations 6
Tres = -0.621205
TsRes = -0.00442167
ExecutionTime = 0.1 s



Wall heat fluxes [W]
movingWall 0.151173 1.38744e-15 0.92397 1.07514
left 0.168063 -3.81546e-16 0.91838 1.08644
right -0.628703 -7.72194e-15 -2.03649 -2.6652
bottom -0.311591 0 0.194144 -0.117447
frontAndBack 0 0 0 0
sum -0.621058 -6.71605e-15 4.15186e-08 -0.621058


Wall heat fluxes [W]
topAndBottom 0 0 0 0
left 2.71042 0 0 2.71042
right -2.66623 0 0 -2.66623
frontAndBack 0 0 0 0
sum 0.0441939 0 0 0.0441939

Time = 35

DILUPBiCG:  Solving for Ux, Initial residual = 0.00797745, Final residual = 7.14749e-05, No Iterations 1
DILUPBiCG:  Solving for Uy, Initial residual = 0.0138193, Final residual = 6.29311e-06, No Iterations 2
DICPCG:  Solving for p_rgh, Initial residual = 0.0163892, Final residual = 0.000151966, No Iterations 6
time step continuity errors : sum local = 0.000469202, global = 8.89385e-17, cumulative = 7.30552e-17
DILUPBiCG:  Solving for epsilon, Initial residual = 0.00952581, Final residual = 6.40303e-06, No Iterations 2
DILUPBiCG:  Solving for k, Initial residual = 0.0319654, Final residual = 5.86882e-05, No Iterations 2
DICPCG:  Solving for G, Initial residual = 0.00046792, Final residual = 3.84029e-05, No Iterations 12
Before T+T solve
BiCG:  Solving for T+T, Initial residual = 0.00100436, Final residual = 9.56288e-07, No Iterations 6
Tres = -0.599007
TsRes = -0.00439523
ExecutionTime = 0.1 s



Wall heat fluxes [W]
movingWall 0.158543 0 0.924821 1.08336
left 0.179452 -6.24348e-16 0.919237 1.09869
right -0.627535 8.58334e-15 -2.0364 -2.66394
bottom -0.309322 0 0.192342 -0.11698
frontAndBack 0 0 0 0
sum -0.598861 7.95899e-15 3.65012e-08 -0.598861


Wall heat fluxes [W]
topAndBottom 0 0 0 0
left 2.70898 0 0 2.70898
right -2.66506 0 0 -2.66506
frontAndBack 0 0 0 0
sum 0.0439244 0 0 0.0439244

Time = 36

DILUPBiCG:  Solving for Ux, Initial residual = 0.00744478, Final residual = 6.58527e-05, No Iterations 1
DILUPBiCG:  Solving for Uy, Initial residual = 0.0125169, Final residual = 3.7779e-06, No Iterations 2
DICPCG:  Solving for p_rgh, Initial residual = 0.0155275, Final residual = 5.41792e-05, No Iterations 12
time step continuity errors : sum local = 0.000166123, global = 5.63801e-17, cumulative = 1.29435e-16
DILUPBiCG:  Solving for epsilon, Initial residual = 0.00913494, Final residual = 6.37562e-06, No Iterations 2
DILUPBiCG:  Solving for k, Initial residual = 0.0304137, Final residual = 6.44428e-05, No Iterations 2
DICPCG:  Solving for G, Initial residual = 0.000510822, Final residual = 4.55155e-05, No Iterations 12
Before T+T solve
BiCG:  Solving for T+T, Initial residual = 0.000976708, Final residual = 9.662e-07, No Iterations 6
Tres = -0.577636
TsRes = -0.00443237
ExecutionTime = 0.1 s



Wall heat fluxes [W]
movingWall 0.165585 1.10995e-15 0.925745 1.09133
left 0.190169 -6.9372e-16 0.920167 1.11034
right -0.626401 1.28369e-15 -2.03623 -2.66263
bottom -0.306842 0 0.190314 -0.116528
frontAndBack 0 0 0 0
sum -0.577489 1.69992e-15 3.13541e-08 -0.577489


Wall heat fluxes [W]
topAndBottom 0 0 0 0
left 2.7082 0 0 2.7082
right -2.66389 0 0 -2.66389
frontAndBack 0 0 0 0
sum 0.0443139 0 0 0.0443139

Time = 37

DILUPBiCG:  Solving for Ux, Initial residual = 0.00693211, Final residual = 3.15619e-06, No Iterations 2
DILUPBiCG:  Solving for Uy, Initial residual = 0.0116692, Final residual = 2.55561e-06, No Iterations 2
DICPCG:  Solving for p_rgh, Initial residual = 0.0152684, Final residual = 4.8671e-05, No Iterations 12
time step continuity errors : sum local = 0.000149912, global = 2.43257e-16, cumulative = 3.72693e-16
DILUPBiCG:  Solving for epsilon, Initial residual = 0.00876804, Final residual = 6.60309e-06, No Iterations 2
DILUPBiCG:  Solving for k, Initial residual = 0.0287801, Final residual = 8.20176e-05, No Iterations 2
DICPCG:  Solving for G, Initial residual = 0.000543275, Final residual = 5.01385e-05, No Iterations 12
Before T+T solve
BiCG:  Solving for T+T, Initial residual = 0.000951338, Final residual = 6.81854e-07, No Iterations 7
Tres = -0.5572
TsRes = -0.0044316
ExecutionTime = 0.11 s



Wall heat fluxes [W]
movingWall 0.172282 2.77488e-16 0.926719 1.099
left 0.200111 6.24348e-16 0.921148 1.12126
right -0.625294 9.01552e-15 -2.036 -2.66129
bottom -0.30415 0 0.188132 -0.116019
frontAndBack 0 0 0 0
sum -0.557052 9.91735e-15 3.66401e-08 -0.557052


Wall heat fluxes [W]
topAndBottom 0 0 0 0
left 2.70744 0 0 2.70744
right -2.66263 0 0 -2.66263
frontAndBack 0 0 0 0
sum 0.0448093 0 0 0.0448093

Time = 38

DILUPBiCG:  Solving for Ux, Initial residual = 0.00649688, Final residual = 3.10287e-06, No Iterations 2
DILUPBiCG:  Solving for Uy, Initial residual = 0.0111987, Final residual = 2.00641e-06, No Iterations 2
DICPCG:  Solving for p_rgh, Initial residual = 0.0152435, Final residual = 0.000137515, No Iterations 11
time step continuity errors : sum local = 0.000421444, global = 1.73911e-16, cumulative = 5.46603e-16
DILUPBiCG:  Solving for epsilon, Initial residual = 0.0084062, Final residual = 6.62748e-06, No Iterations 2
DILUPBiCG:  Solving for k, Initial residual = 0.0271368, Final residual = 0.000113262, No Iterations 2
DICPCG:  Solving for G, Initial residual = 0.00058463, Final residual = 5.53988e-05, No Iterations 12
Before T+T solve
BiCG:  Solving for T+T, Initial residual = 0.000927752, Final residual = 7.8423e-07, No Iterations 7
Tres = -0.537753
TsRes = -0.00454768
ExecutionTime = 0.11 s



Wall heat fluxes [W]
movingWall 0.178628 -5.54976e-16 0.927765 1.10639
left 0.209215 -1.66493e-15 0.922202 1.13142
right -0.624199 1.1159e-14 -2.03571 -2.65991
bottom -0.301245 0 0.185744 -0.115501
frontAndBack 0 0 0 0
sum -0.5376 8.93906e-15 3.66933e-08 -0.5376


Wall heat fluxes [W]
topAndBottom 0 0 0 0
left 2.70772 0 0 2.70772
right -2.6614 0 0 -2.6614
frontAndBack 0 0 0 0
sum 0.0463184 0 0 0.0463184

Time = 39

DILUPBiCG:  Solving for Ux, Initial residual = 0.00615945, Final residual = 3.4056e-06, No Iterations 2
DILUPBiCG:  Solving for Uy, Initial residual = 0.0109582, Final residual = 1.66583e-06, No Iterations 2
DICPCG:  Solving for p_rgh, Initial residual = 0.0152838, Final residual = 0.000128078, No Iterations 10
time step continuity errors : sum local = 0.00040935, global = 4.74338e-16, cumulative = 1.02094e-15
DILUPBiCG:  Solving for epsilon, Initial residual = 0.00806668, Final residual = 6.37066e-06, No Iterations 2
DILUPBiCG:  Solving for k, Initial residual = 0.0255259, Final residual = 0.000149769, No Iterations 2
DICPCG:  Solving for G, Initial residual = 0.000621417, Final residual = 5.91276e-05, No Iterations 12
Before T+T solve
BiCG:  Solving for T+T, Initial residual = 0.0009064, Final residual = 8.63204e-07, No Iterations 7
Tres = -0.519334
TsRes = -0.00472459
ExecutionTime = 0.11 s



Wall heat fluxes [W]
movingWall 0.18463 2.77488e-16 0.928872 1.1135
left 0.217459 -9.71208e-16 0.923317 1.14078
right -0.623099 2.66102e-14 -2.03537 -2.65847
bottom -0.298164 0 0.183179 -0.114985
frontAndBack 0 0 0 0
sum -0.519175 2.59164e-14 4.55365e-08 -0.519175


Wall heat fluxes [W]
topAndBottom 0 0 0 0
left 2.70834 0 0 2.70834
right -2.66013 0 0 -2.66013
frontAndBack 0 0 0 0
sum 0.0482125 0 0 0.0482125

Time = 40

DILUPBiCG:  Solving for Ux, Initial residual = 0.0059481, Final residual = 3.95367e-06, No Iterations 2
DILUPBiCG:  Solving for Uy, Initial residual = 0.0109545, Final residual = 1.48227e-06, No Iterations 2
DICPCG:  Solving for p_rgh, Initial residual = 0.0153694, Final residual = 6.16348e-05, No Iterations 10
time step continuity errors : sum local = 0.000194423, global = 1.5101e-16, cumulative = 1.17195e-15
DILUPBiCG:  Solving for epsilon, Initial residual = 0.00774325, Final residual = 5.98111e-06, No Iterations 2
DILUPBiCG:  Solving for k, Initial residual = 0.0239788, Final residual = 0.000181178, No Iterations 2
DICPCG:  Solving for G, Initial residual = 0.000653377, Final residual = 6.14888e-05, No Iterations 12
Before T+T solve
BiCG:  Solving for T+T, Initial residual = 0.000888514, Final residual = 3.03817e-07, No Iterations 8
Tres = -0.501953
TsRes = -0.00486115
ExecutionTime = 0.12 s



Wall heat fluxes [W]
movingWall 0.190287 2.77488e-16 0.930035 1.12032
left 0.224858 3.4686e-16 0.924489 1.14935
right -0.621978 4.72086e-15 -2.035 -2.65698
bottom -0.294952 0 0.180478 -0.114474
frontAndBack 0 0 0 0
sum -0.501785 5.34521e-15 5.13902e-08 -0.501785


Wall heat fluxes [W]
topAndBottom 0 0 0 0
left 2.70941 0 0 2.70941
right -2.65872 0 0 -2.65872
frontAndBack 0 0 0 0
sum 0.0506953 0 0 0.0506953

Time = 41

DILUPBiCG:  Solving for Ux, Initial residual = 0.00590907, Final residual = 6.57013e-06, No Iterations 2
DILUPBiCG:  Solving for Uy, Initial residual = 0.0109888, Final residual = 1.36607e-06, No Iterations 2
DICPCG:  Solving for p_rgh, Initial residual = 0.0155411, Final residual = 4.46277e-05, No Iterations 10
time step continuity errors : sum local = 0.000137756, global = 2.48287e-16, cumulative = 1.42024e-15
DILUPBiCG:  Solving for epsilon, Initial residual = 0.00743703, Final residual = 5.55506e-06, No Iterations 2
DILUPBiCG:  Solving for k, Initial residual = 0.0225258, Final residual = 0.000192881, No Iterations 2
DICPCG:  Solving for G, Initial residual = 0.000679137, Final residual = 6.26649e-05, No Iterations 12
Before T+T solve
BiCG:  Solving for T+T, Initial residual = 0.000872246, Final residual = 3.12839e-07, No Iterations 8
Tres = -0.485575
TsRes = -0.00510581
ExecutionTime = 0.12 s



Wall heat fluxes [W]
movingWall 0.195614 0 0.931243 1.12686
left 0.231445 -1.52618e-15 0.925705 1.15715
right -0.620818 1.50228e-14 -2.03462 -2.65544
bottom -0.29164 0 0.177674 -0.113965
frontAndBack 0 0 0 0
sum -0.485399 1.34967e-14 6.04696e-08 -0.485399


Wall heat fluxes [W]
topAndBottom 0 0 0 0
left 2.71075 0 0 2.71075
right -2.65731 0 0 -2.65731
frontAndBack 0 0 0 0
sum 0.0534461 0 0 0.0534461

Time = 42

DILUPBiCG:  Solving for Ux, Initial residual = 0.0059438, Final residual = 7.01496e-09, No Iterations 3
DILUPBiCG:  Solving for Uy, Initial residual = 0.0110549, Final residual = 1.27457e-06, No Iterations 2
DICPCG:  Solving for p_rgh, Initial residual = 0.0158998, Final residual = 4.84617e-05, No Iterations 10
time step continuity errors : sum local = 0.000148317, global = 1.67157e-16, cumulative = 1.5874e-15
DILUPBiCG:  Solving for epsilon, Initial residual = 0.00713295, Final residual = 5.18345e-06, No Iterations 2
DILUPBiCG:  Solving for k, Initial residual = 0.0212691, Final residual = 0.000181028, No Iterations 2
DICPCG:  Solving for G, Initial residual = 0.000701809, Final residual = 6.29508e-05, No Iterations 12
Before T+T solve
BiCG:  Solving for T+T, Initial residual = 0.000858899, Final residual = 3.21086e-07, No Iterations 8
Tres = -0.470155
TsRes = -0.00539197
ExecutionTime = 0.12 s



Wall heat fluxes [W]
movingWall 0.200625 -2.77488e-16 0.932492 1.13312
left 0.237277 -3.4686e-16 0.926964 1.16424
right -0.619605 8.5857e-15 -2.03425 -2.65385
bottom -0.288265 0 0.174789 -0.113476
frontAndBack 0 0 0 0
sum -0.469969 7.96135e-15 6.80728e-08 -0.469969


Wall heat fluxes [W]
topAndBottom 0 0 0 0
left 2.71229 0 0 2.71229
right -2.65584 0 0 -2.65584
frontAndBack 0 0 0 0
sum 0.0564529 0 0 0.0564529

Time = 43

DILUPBiCG:  Solving for Ux, Initial residual = 0.00598266, Final residual = 4.82885e-06, No Iterations 2
DILUPBiCG:  Solving for Uy, Initial residual = 0.0111613, Final residual = 1.19637e-06, No Iterations 2
DICPCG:  Solving for p_rgh, Initial residual = 0.0164628, Final residual = 7.3635e-05, No Iterations 10
time step continuity errors : sum local = 0.000228321, global = 6.48665e-18, cumulative = 1.59388e-15
DILUPBiCG:  Solving for epsilon, Initial residual = 0.00683159, Final residual = 4.86497e-06, No Iterations 2
DILUPBiCG:  Solving for k, Initial residual = 0.0201578, Final residual = 0.000155978, No Iterations 2
DICPCG:  Solving for G, Initial residual = 0.000717061, Final residual = 6.1169e-05, No Iterations 12
Before T+T solve
BiCG:  Solving for T+T, Initial residual = 0.00084702, Final residual = 3.29393e-07, No Iterations 8
Tres = -0.455632
TsRes = -0.00569114
ExecutionTime = 0.12 s



Wall heat fluxes [W]
movingWall 0.20534 1.38744e-15 0.93377 1.13911
left 0.242424 2.983e-15 0.92825 1.17067
right -0.618327 -6.43913e-15 -2.03389 -2.65221
bottom -0.284872 0 0.171866 -0.113006
frontAndBack 0 0 0 0
sum -0.455435 -2.0687e-15 7.56252e-08 -0.455435


Wall heat fluxes [W]
topAndBottom 0 0 0 0
left 2.71383 0 0 2.71383
right -2.65429 0 0 -2.65429
frontAndBack 0 0 0 0
sum 0.0595338 0 0 0.0595338

Time = 44

DILUPBiCG:  Solving for Ux, Initial residual = 0.00600944, Final residual = 2.48186e-06, No Iterations 2
DILUPBiCG:  Solving for Uy, Initial residual = 0.0112295, Final residual = 1.1356e-06, No Iterations 2
DICPCG:  Solving for p_rgh, Initial residual = 0.0172401, Final residual = 0.000149184, No Iterations 5
time step continuity errors : sum local = 0.000747265, global = -1.33145e-16, cumulative = 1.46074e-15
DILUPBiCG:  Solving for epsilon, Initial residual = 0.00662645, Final residual = 4.61486e-06, No Iterations 2
DILUPBiCG:  Solving for k, Initial residual = 0.0192092, Final residual = 0.000127501, No Iterations 2
DICPCG:  Solving for G, Initial residual = 0.000725428, Final residual = 5.70473e-05, No Iterations 12
Before T+T solve
BiCG:  Solving for T+T, Initial residual = 0.000835419, Final residual = 3.38038e-07, No Iterations 8
Tres = -0.441946
TsRes = -0.00598401
ExecutionTime = 0.12 s



Wall heat fluxes [W]
movingWall 0.209776 1.38744e-15 0.935067 1.14484
left 0.246935 -1.80367e-15 0.929555 1.17649
right -0.616976 -6.4334e-15 -2.03356 -2.65054
bottom -0.281475 0 0.168938 -0.112537
frontAndBack 0 0 0 0
sum -0.44174 -6.84964e-15 8.0838e-08 -0.44174


Wall heat fluxes [W]
topAndBottom 0 0 0 0
left 2.7152 0 0 2.7152
right -2.65267 0 0 -2.65267
frontAndBack 0 0 0 0
sum 0.0625355 0 0 0.0625355

Time = 45

DILUPBiCG:  Solving for Ux, Initial residual = 0.00598353, Final residual = 1.71179e-06, No Iterations 2
DILUPBiCG:  Solving for Uy, Initial residual = 0.0113298, Final residual = 1.08087e-06, No Iterations 2
DICPCG:  Solving for p_rgh, Initial residual = 0.0180348, Final residual = 0.000102819, No Iterations 10
time step continuity errors : sum local = 0.000323421, global = -1.81848e-16, cumulative = 1.27889e-15
DILUPBiCG:  Solving for epsilon, Initial residual = 0.00645261, Final residual = 4.36959e-06, No Iterations 2
DILUPBiCG:  Solving for k, Initial residual = 0.0183369, Final residual = 0.000108407, No Iterations 2
DICPCG:  Solving for G, Initial residual = 0.000731868, Final residual = 5.08398e-05, No Iterations 12
Before T+T solve
BiCG:  Solving for T+T, Initial residual = 0.000826897, Final residual = 3.52052e-07, No Iterations 8
Tres = -0.429004
TsRes = -0.00626303
ExecutionTime = 0.13 s



Wall heat fluxes [W]
movingWall 0.21396 -1.66493e-15 0.936384 1.15034
left 0.250979 1.52618e-15 0.93088 1.18186
right -0.615547 -8.58079e-15 -2.03327 -2.64882
bottom -0.27818 0 0.166005 -0.112175
frontAndBack 0 0 0 0
sum -0.428788 -8.71953e-15 8.0903e-08 -0.428788


Wall heat fluxes [W]
topAndBottom 0 0 0 0
left 2.71638 0 0 2.71638
right -2.65097 0 0 -2.65097
frontAndBack 0 0 0 0
sum 0.0654163 0 0 0.0654163

Time = 46

DILUPBiCG:  Solving for Ux, Initial residual = 0.00605471, Final residual = 1.48047e-06, No Iterations 2
DILUPBiCG:  Solving for Uy, Initial residual = 0.0111571, Final residual = 1.04463e-06, No Iterations 2
DICPCG:  Solving for p_rgh, Initial residual = 0.019119, Final residual = 0.000124395, No Iterations 5
time step continuity errors : sum local = 0.000601273, global = 1.0932e-16, cumulative = 1.38821e-15
DILUPBiCG:  Solving for epsilon, Initial residual = 0.00627769, Final residual = 4.15234e-06, No Iterations 2
DILUPBiCG:  Solving for k, Initial residual = 0.017603, Final residual = 9.18736e-05, No Iterations 2
DICPCG:  Solving for G, Initial residual = 0.000709171, Final residual = 4.28582e-05, No Iterations 12
Before T+T solve
BiCG:  Solving for T+T, Initial residual = 0.000818034, Final residual = 3.65522e-07, No Iterations 8
Tres = -0.416805
TsRes = -0.00647462
ExecutionTime = 0.13 s



Wall heat fluxes [W]
movingWall 0.217903 -5.54976e-16 0.937667 1.15557
left 0.254518 0 0.932171 1.18669
right -0.614045 6.8711e-15 -2.03306 -2.6471
bottom -0.274959 0 0.163221 -0.111738
frontAndBack 0 0 0 0
sum -0.416583 6.31612e-15 -3.25147e-09 -0.416583


Wall heat fluxes [W]
topAndBottom 0 0 0 0
left 2.7167 0 0 2.7167
right -2.6492 0 0 -2.6492
frontAndBack 0 0 0 0
sum 0.0674969 0 0 0.0674969

Time = 47

DILUPBiCG:  Solving for Ux, Initial residual = 0.00597332, Final residual = 1.29293e-06, No Iterations 2
DILUPBiCG:  Solving for Uy, Initial residual = 0.0111898, Final residual = 1.00296e-06, No Iterations 2
DICPCG:  Solving for p_rgh, Initial residual = 0.020155, Final residual = 0.000192508, No Iterations 5
time step continuity errors : sum local = 0.000938049, global = -2.56716e-17, cumulative = 1.36254e-15
DILUPBiCG:  Solving for epsilon, Initial residual = 0.00607404, Final residual = 3.9183e-06, No Iterations 2
DILUPBiCG:  Solving for k, Initial residual = 0.0169425, Final residual = 8.13331e-05, No Iterations 2
DICPCG:  Solving for G, Initial residual = 0.000710899, Final residual = 3.85355e-05, No Iterations 12
Before T+T solve
BiCG:  Solving for T+T, Initial residual = 0.000809272, Final residual = 3.7945e-07, No Iterations 8
Tres = -0.405226
TsRes = -0.00666064
ExecutionTime = 0.13 s



Wall heat fluxes [W]
movingWall 0.221624 1.10995e-15 0.938966 1.16059
left 0.257699 -4.85604e-16 0.933476 1.19118
right -0.612474 -1.28943e-15 -2.03288 -2.64536
bottom -0.271846 0 0.16044 -0.111406
frontAndBack 0 0 0 0
sum -0.404997 -6.65084e-16 6.72414e-08 -0.404997


Wall heat fluxes [W]
topAndBottom 0 0 0 0
left 2.71687 0 0 2.71687
right -2.64739 0 0 -2.64739
frontAndBack 0 0 0 0
sum 0.0694819 0 0 0.0694819

Time = 48

DILUPBiCG:  Solving for Ux, Initial residual = 0.00593617, Final residual = 1.17692e-06, No Iterations 2
DILUPBiCG:  Solving for Uy, Initial residual = 0.0110704, Final residual = 9.59858e-07, No Iterations 2
DICPCG:  Solving for p_rgh, Initial residual = 0.0210866, Final residual = 6.85937e-05, No Iterations 11
time step continuity errors : sum local = 0.000215713, global = -1.89655e-16, cumulative = 1.17288e-15
DILUPBiCG:  Solving for epsilon, Initial residual = 0.00586012, Final residual = 3.70608e-06, No Iterations 2
DILUPBiCG:  Solving for k, Initial residual = 0.0162743, Final residual = 7.52492e-05, No Iterations 2
DICPCG:  Solving for G, Initial residual = 0.000685463, Final residual = 5.17753e-05, No Iterations 12
Before T+T solve
BiCG:  Solving for T+T, Initial residual = 0.000802037, Final residual = 3.93884e-07, No Iterations 8
Tres = -0.394235
TsRes = -0.00677105
ExecutionTime = 0.13 s



Wall heat fluxes [W]
movingWall 0.225147 1.94242e-15 0.940225 1.16537
left 0.260626 -5.54976e-16 0.934741 1.19537
right -0.610845 -1.07332e-14 -2.03278 -2.64362
bottom -0.268931 0 0.157812 -0.111119
frontAndBack 0 0 0 0
sum -0.394002 -9.34573e-15 2.45938e-08 -0.394002


Wall heat fluxes [W]
topAndBottom 0 0 0 0
left 2.71608 0 0 2.71608
right -2.64553 0 0 -2.64553
frontAndBack 0 0 0 0
sum 0.070547 0 0 0.070547

Time = 49

DILUPBiCG:  Solving for Ux, Initial residual = 0.00598387, Final residual = 1.25316e-06, No Iterations 2
DILUPBiCG:  Solving for Uy, Initial residual = 0.0108056, Final residual = 9.35855e-07, No Iterations 2
DICPCG:  Solving for p_rgh, Initial residual = 0.0223279, Final residual = 0.00012809, No Iterations 5
time step continuity errors : sum local = 0.000463658, global = 2.94609e-16, cumulative = 1.46749e-15
DILUPBiCG:  Solving for epsilon, Initial residual = 0.00563297, Final residual = 3.51407e-06, No Iterations 2
DILUPBiCG:  Solving for k, Initial residual = 0.0156629, Final residual = 7.02346e-05, No Iterations 2
DICPCG:  Solving for G, Initial residual = 0.000671735, Final residual = 4.77673e-05, No Iterations 12
Before T+T solve
BiCG:  Solving for T+T, Initial residual = 0.000793628, Final residual = 4.06032e-07, No Iterations 8
Tres = -0.383823
TsRes = -0.00679886
ExecutionTime = 0.14 s



Wall heat fluxes [W]
movingWall 0.22847 -5.54976e-16 0.941433 1.1699
left 0.263263 1.66493e-15 0.935955 1.19922
right -0.609171 1.37466e-14 -2.03276 -2.64193
bottom -0.266151 0 0.155369 -0.110782
frontAndBack 0 0 0 0
sum -0.383589 1.48565e-14 2.05071e-08 -0.383589


Wall heat fluxes [W]
topAndBottom 0 0 0 0
left 2.71446 0 0 2.71446
right -2.64366 0 0 -2.64366
frontAndBack 0 0 0 0
sum 0.0707929 0 0 0.0707929

Time = 50

DILUPBiCG:  Solving for Ux, Initial residual = 0.00592141, Final residual = 1.27953e-06, No Iterations 2
DILUPBiCG:  Solving for Uy, Initial residual = 0.0106739, Final residual = 9.23405e-07, No Iterations 2
DICPCG:  Solving for p_rgh, Initial residual = 0.0234651, Final residual = 0.000137843, No Iterations 5
time step continuity errors : sum local = 0.00048335, global = 1.09585e-16, cumulative = 1.57708e-15
DILUPBiCG:  Solving for epsilon, Initial residual = 0.00537653, Final residual = 3.27898e-06, No Iterations 2
DILUPBiCG:  Solving for k, Initial residual = 0.0149824, Final residual = 6.64577e-05, No Iterations 2
DICPCG:  Solving for G, Initial residual = 0.000658881, Final residual = 4.17985e-05, No Iterations 12
Before T+T solve
BiCG:  Solving for T+T, Initial residual = 0.000785387, Final residual = 4.14665e-07, No Iterations 8
Tres = -0.373887
TsRes = -0.00677665
ExecutionTime = 0.14 s



Wall heat fluxes [W]
movingWall 0.231615 5.54976e-16 0.942624 1.17424
left 0.265732 -6.9372e-16 0.937151 1.20288
right -0.60747 5.15284e-15 -2.03277 -2.64024
bottom -0.263533 0 0.152993 -0.11054
frontAndBack 0 0 0 0
sum -0.373655 5.01409e-15 1.47404e-08 -0.373655


Wall heat fluxes [W]
topAndBottom 0 0 0 0
left 2.71241 0 0 2.71241
right -2.6418 0 0 -2.6418
frontAndBack 0 0 0 0
sum 0.0706093 0 0 0.0706093

Time = 51

DILUPBiCG:  Solving for Ux, Initial residual = 0.00586819, Final residual = 1.31329e-06, No Iterations 2
DILUPBiCG:  Solving for Uy, Initial residual = 0.0104659, Final residual = 9.22808e-07, No Iterations 2
DICPCG:  Solving for p_rgh, Initial residual = 0.0245413, Final residual = 0.000148058, No Iterations 5
time step continuity errors : sum local = 0.000554693, global = 1.70201e-16, cumulative = 1.74728e-15
DILUPBiCG:  Solving for epsilon, Initial residual = 0.00511119, Final residual = 3.05243e-06, No Iterations 2
DILUPBiCG:  Solving for k, Initial residual = 0.0143574, Final residual = 6.45059e-05, No Iterations 2
DICPCG:  Solving for G, Initial residual = 0.000621364, Final residual = 4.54544e-05, No Iterations 12
Before T+T solve
BiCG:  Solving for T+T, Initial residual = 0.000776921, Final residual = 4.19679e-07, No Iterations 8
Tres = -0.364431
TsRes = -0.00667027
ExecutionTime = 0.14 s



Wall heat fluxes [W]
movingWall 0.234593 -1.66493e-15 0.943753 1.17835
left 0.268064 -5.54976e-16 0.938284 1.20635
right -0.605759 1.28849e-14 -2.03284 -2.6386
bottom -0.2611 0 0.150806 -0.110294
frontAndBack 0 0 0 0
sum -0.364202 1.0665e-14 1.7519e-08 -0.364202


Wall heat fluxes [W]
topAndBottom 0 0 0 0
left 2.7094 0 0 2.7094
right -2.63995 0 0 -2.63995
frontAndBack 0 0 0 0
sum 0.0694467 0 0 0.0694467

Time = 52

DILUPBiCG:  Solving for Ux, Initial residual = 0.00581787, Final residual = 1.36216e-06, No Iterations 2
DILUPBiCG:  Solving for Uy, Initial residual = 0.0102041, Final residual = 9.24449e-07, No Iterations 2
DICPCG:  Solving for p_rgh, Initial residual = 0.0255527, Final residual = 0.000160006, No Iterations 5
time step continuity errors : sum local = 0.000639176, global = 1.86877e-16, cumulative = 1.93415e-15
DILUPBiCG:  Solving for epsilon, Initial residual = 0.00494196, Final residual = 2.84314e-06, No Iterations 2
DILUPBiCG:  Solving for k, Initial residual = 0.0137891, Final residual = 6.3507e-05, No Iterations 2
DICPCG:  Solving for G, Initial residual = 0.000599078, Final residual = 4.13355e-05, No Iterations 12
Before T+T solve
BiCG:  Solving for T+T, Initial residual = 0.00076785, Final residual = 4.22517e-07, No Iterations 8
Tres = -0.355409
TsRes = -0.00649811
ExecutionTime = 0.14 s



Wall heat fluxes [W]
movingWall 0.237412 5.54976e-16 0.944832 1.18224
left 0.270301 -9.71208e-16 0.939368 1.20967
right -0.604057 1.15943e-14 -2.03296 -2.63702
bottom -0.258842 0 0.148759 -0.110083
frontAndBack 0 0 0 0
sum -0.355186 1.1178e-14 1.84759e-08 -0.355186


Wall heat fluxes [W]
topAndBottom 0 0 0 0
left 2.70581 0 0 2.70581
right -2.63814 0 0 -2.63814
frontAndBack 0 0 0 0
sum 0.0676674 0 0 0.0676674

Time = 53

DILUPBiCG:  Solving for Ux, Initial residual = 0.00577898, Final residual = 1.42642e-06, No Iterations 2
DILUPBiCG:  Solving for Uy, Initial residual = 0.0099358, Final residual = 9.39152e-07, No Iterations 2
DICPCG:  Solving for p_rgh, Initial residual = 0.0265051, Final residual = 0.000170366, No Iterations 5
time step continuity errors : sum local = 0.00070104, global = -4.8448e-17, cumulative = 1.8857e-15
DILUPBiCG:  Solving for epsilon, Initial residual = 0.00476267, Final residual = 2.64292e-06, No Iterations 2
DILUPBiCG:  Solving for k, Initial residual = 0.0132136, Final residual = 6.35062e-05, No Iterations 2
DICPCG:  Solving for G, Initial residual = 0.000564295, Final residual = 4.00174e-05, No Iterations 12
Before T+T solve
BiCG:  Solving for T+T, Initial residual = 0.00075816, Final residual = 4.23511e-07, No Iterations 8
Tres = -0.346792
TsRes = -0.00626185
ExecutionTime = 0.15 s



Wall heat fluxes [W]
movingWall 0.240085 -1.10995e-15 0.945852 1.18594
left 0.272483 -1.59556e-15 0.940392 1.21287
right -0.602385 8.6401e-16 -2.03311 -2.6355
bottom -0.25676 0 0.146869 -0.109891
frontAndBack 0 0 0 0
sum -0.346577 -1.8415e-15 1.57758e-08 -0.346577


Wall heat fluxes [W]
topAndBottom 0 0 0 0
left 2.7016 0 0 2.7016
right -2.6364 0 0 -2.6364
frontAndBack 0 0 0 0
sum 0.0652061 0 0 0.0652061

Time = 54

DILUPBiCG:  Solving for Ux, Initial residual = 0.00573729, Final residual = 1.4945e-06, No Iterations 2
DILUPBiCG:  Solving for Uy, Initial residual = 0.00968334, Final residual = 9.73182e-07, No Iterations 2
DICPCG:  Solving for p_rgh, Initial residual = 0.0273675, Final residual = 0.00017616, No Iterations 5
time step continuity errors : sum local = 0.000721531, global = -1.54056e-16, cumulative = 1.73165e-15
DILUPBiCG:  Solving for epsilon, Initial residual = 0.00458432, Final residual = 2.45366e-06, No Iterations 2
DILUPBiCG:  Solving for k, Initial residual = 0.0126463, Final residual = 6.47184e-05, No Iterations 2
DICPCG:  Solving for G, Initial residual = 0.000531614, Final residual = 3.66535e-05, No Iterations 12
Before T+T solve
BiCG:  Solving for T+T, Initial residual = 0.000748664, Final residual = 4.2292e-07, No Iterations 8
Tres = -0.338553
TsRes = -0.00597072
ExecutionTime = 0.15 s



Wall heat fluxes [W]
movingWall 0.242622 1.10995e-15 0.946812 1.18943
left 0.274642 2.08116e-16 0.941355 1.216
right -0.600759 -6.01324e-15 -2.03329 -2.63405
bottom -0.254853 0 0.145128 -0.109726
frontAndBack 0 0 0 0
sum -0.338348 -4.69517e-15 1.4285e-08 -0.338348


Wall heat fluxes [W]
topAndBottom 0 0 0 0
left 2.69691 0 0 2.69691
right -2.63473 0 0 -2.63473
frontAndBack 0 0 0 0
sum 0.0621878 0 0 0.0621878

Time = 55

DILUPBiCG:  Solving for Ux, Initial residual = 0.00569324, Final residual = 1.55679e-06, No Iterations 2
DILUPBiCG:  Solving for Uy, Initial residual = 0.00949053, Final residual = 1.04216e-06, No Iterations 2
DICPCG:  Solving for p_rgh, Initial residual = 0.0281927, Final residual = 0.000177096, No Iterations 5
time step continuity errors : sum local = 0.000701379, global = 4.93397e-16, cumulative = 2.22505e-15
DILUPBiCG:  Solving for epsilon, Initial residual = 0.00438286, Final residual = 2.23178e-06, No Iterations 2
DILUPBiCG:  Solving for k, Initial residual = 0.0120537, Final residual = 6.47511e-05, No Iterations 2
DICPCG:  Solving for G, Initial residual = 0.000494601, Final residual = 3.33536e-05, No Iterations 12
Before T+T solve
BiCG:  Solving for T+T, Initial residual = 0.000739481, Final residual = 4.20881e-07, No Iterations 8
Tres = -0.330656
TsRes = -0.00563174
ExecutionTime = 0.15 s



Wall heat fluxes [W]
movingWall 0.245033 5.54976e-16 0.947706 1.19274
left 0.276805 6.24348e-16 0.942252 1.21906
right -0.599195 2.1483e-14 -2.0335 -2.63269
bottom -0.253105 0 0.143539 -0.109567
frontAndBack 0 0 0 0
sum -0.330462 2.26623e-14 1.28257e-08 -0.330462


Wall heat fluxes [W]
topAndBottom 0 0 0 0
left 2.69181 0 0 2.69181
right -2.63314 0 0 -2.63314
frontAndBack 0 0 0 0
sum 0.0586706 0 0 0.0586706

Time = 56

DILUPBiCG:  Solving for Ux, Initial residual = 0.00566143, Final residual = 1.62421e-06, No Iterations 2
DILUPBiCG:  Solving for Uy, Initial residual = 0.0093533, Final residual = 1.15191e-06, No Iterations 2
DICPCG:  Solving for p_rgh, Initial residual = 0.0288457, Final residual = 0.000175863, No Iterations 5
time step continuity errors : sum local = 0.000657906, global = 2.66286e-16, cumulative = 2.49133e-15
DILUPBiCG:  Solving for epsilon, Initial residual = 0.00420254, Final residual = 2.04533e-06, No Iterations 2
DILUPBiCG:  Solving for k, Initial residual = 0.0115044, Final residual = 6.61785e-05, No Iterations 2
DICPCG:  Solving for G, Initial residual = 0.000460386, Final residual = 3.01118e-05, No Iterations 12
Before T+T solve
BiCG:  Solving for T+T, Initial residual = 0.000730719, Final residual = 4.17493e-07, No Iterations 8
Tres = -0.323061
TsRes = -0.00525996
ExecutionTime = 0.15 s



Wall heat fluxes [W]
movingWall 0.247331 -2.77488e-16 0.94854 1.19587
left 0.278992 3.88483e-15 0.943088 1.22208
right -0.597709 8.58547e-15 -2.0337 -2.63141
bottom -0.251493 0 0.142076 -0.109417
frontAndBack 0 0 0 0
sum -0.32288 1.21928e-14 1.06123e-08 -0.32288


Wall heat fluxes [W]
topAndBottom 0 0 0 0
left 2.68649 0 0 2.68649
right -2.63166 0 0 -2.63166
frontAndBack 0 0 0 0
sum 0.0548296 0 0 0.0548296

Time = 57

DILUPBiCG:  Solving for Ux, Initial residual = 0.00563554, Final residual = 1.68442e-06, No Iterations 2
DILUPBiCG:  Solving for Uy, Initial residual = 0.00925326, Final residual = 1.34907e-06, No Iterations 2
DICPCG:  Solving for p_rgh, Initial residual = 0.029349, Final residual = 0.000175066, No Iterations 5
time step continuity errors : sum local = 0.000608157, global = -1.21757e-16, cumulative = 2.36957e-15
DILUPBiCG:  Solving for epsilon, Initial residual = 0.00403979, Final residual = 1.87869e-06, No Iterations 2
DILUPBiCG:  Solving for k, Initial residual = 0.0109793, Final residual = 6.95316e-05, No Iterations 2
DICPCG:  Solving for G, Initial residual = 0.000427921, Final residual = 2.67756e-05, No Iterations 12
Before T+T solve
BiCG:  Solving for T+T, Initial residual = 0.000722453, Final residual = 4.13057e-07, No Iterations 8
Tres = -0.315734
TsRes = -0.00486695
ExecutionTime = 0.16 s



Wall heat fluxes [W]
movingWall 0.249526 -5.54976e-16 0.949317 1.19884
left 0.281219 -9.71208e-16 0.943868 1.22509
right -0.596313 -2.14426e-15 -2.03391 -2.63022
bottom -0.249999 0 0.140724 -0.109275
frontAndBack 0 0 0 0
sum -0.315567 -3.67045e-15 8.41783e-09 -0.315567


Wall heat fluxes [W]
topAndBottom 0 0 0 0
left 2.68105 0 0 2.68105
right -2.63028 0 0 -2.63028
frontAndBack 0 0 0 0
sum 0.0507668 0 0 0.0507668

Time = 58

DILUPBiCG:  Solving for Ux, Initial residual = 0.00561716, Final residual = 1.74e-06, No Iterations 2
DILUPBiCG:  Solving for Uy, Initial residual = 0.00917311, Final residual = 1.59722e-06, No Iterations 2
DICPCG:  Solving for p_rgh, Initial residual = 0.0296696, Final residual = 0.000174826, No Iterations 5
time step continuity errors : sum local = 0.0005623, global = 1.13824e-16, cumulative = 2.4834e-15
DILUPBiCG:  Solving for epsilon, Initial residual = 0.0038914, Final residual = 1.72847e-06, No Iterations 2
DILUPBiCG:  Solving for k, Initial residual = 0.0104738, Final residual = 7.8409e-05, No Iterations 2
DICPCG:  Solving for G, Initial residual = 0.000396869, Final residual = 2.25403e-05, No Iterations 12
Before T+T solve
BiCG:  Solving for T+T, Initial residual = 0.000714727, Final residual = 4.08755e-07, No Iterations 8
Tres = -0.308644
TsRes = -0.0044622
ExecutionTime = 0.16 s



Wall heat fluxes [W]
movingWall 0.251631 1.66493e-15 0.950039 1.20167
left 0.2835 -2.01179e-15 0.944593 1.22809
right -0.595016 7.73728e-15 -2.0341 -2.62912
bottom -0.248605 0 0.139467 -0.109138
frontAndBack 0 0 0 0
sum -0.30849 7.39042e-15 3.91285e-09 -0.30849


Wall heat fluxes [W]
topAndBottom 0 0 0 0
left 2.67559 0 0 2.67559
right -2.62901 0 0 -2.62901
frontAndBack 0 0 0 0
sum 0.0465762 0 0 0.0465762

Time = 59

DILUPBiCG:  Solving for Ux, Initial residual = 0.00560024, Final residual = 1.78296e-06, No Iterations 2
DILUPBiCG:  Solving for Uy, Initial residual = 0.00912033, Final residual = 1.87408e-06, No Iterations 2
DICPCG:  Solving for p_rgh, Initial residual = 0.0298817, Final residual = 0.000175466, No Iterations 5
[...]
DILUPBiCG:  Solving for epsilon, Initial residual = 1.96536e-10, Final residual = 5.66293e-14, No Iterations 3
DILUPBiCG:  Solving for k, Initial residual = 3.49668e-10, Final residual = 2.44279e-12, No Iterations 2
DICPCG:  Solving for G, Initial residual = 7.94407e-12, Final residual = 2.2157e-13, No Iterations 11
Before T+T solve
BiCG:  Solving for T+T, Initial residual = 2.90381e-11, Final residual = 1.15437e-14, No Iterations 8
Tres = -1.49186e-08
TsRes = -1.45405e-10
ExecutionTime = 2.42 s



Wall heat fluxes [W]
movingWall 0.375476 -5.54976e-16 0.974645 1.35012
left 0.377248 2.983e-15 0.969302 1.34655
right -0.561393 4.29846e-15 -2.03295 -2.59434
bottom -0.191331 0 0.0890037 -0.102327
frontAndBack 0 0 0 0
sum -1.49134e-08 6.72648e-15 4.00319e-13 -1.4913e-08


Wall heat fluxes [W]
topAndBottom 0 0 0 0
left 2.59434 0 0 2.59434
right -2.59434 0 0 -2.59434
frontAndBack 0 0 0 0
sum 1.5663e-09 0 0 1.5663e-09

Time = 987

DILUPBiCG:  Solving for Ux, Initial residual = 1.58144e-10, Final residual = 1.23859e-12, No Iterations 1
DILUPBiCG:  Solving for Uy, Initial residual = 2.41142e-10, Final residual = 8.07389e-14, No Iterations 2
DICPCG:  Solving for p_rgh, Initial residual = 2.94418e-10, Final residual = 1.74949e-12, No Iterations 12
time step continuity errors : sum local = 6.46928e-12, global = -6.03511e-17, cumulative = 1.36392e-14
DILUPBiCG:  Solving for epsilon, Initial residual = 1.92037e-10, Final residual = 5.53539e-14, No Iterations 3
DILUPBiCG:  Solving for k, Initial residual = 3.41633e-10, Final residual = 2.38411e-12, No Iterations 2
DICPCG:  Solving for G, Initial residual = 7.8547e-12, Final residual = 1.92534e-13, No Iterations 11
Before T+T solve
BiCG:  Solving for T+T, Initial residual = 2.84077e-11, Final residual = 1.12989e-14, No Iterations 8
Tres = -1.45943e-08
TsRes = -1.41971e-10
ExecutionTime = 2.42 s



Wall heat fluxes [W]
movingWall 0.375476 -1.66493e-15 0.974645 1.35012
left 0.377248 -3.4686e-15 0.969302 1.34655
right -0.561393 4.72849e-15 -2.03295 -2.59434
bottom -0.191331 0 0.0890037 -0.102327
frontAndBack 0 0 0 0
sum -1.45892e-08 -4.05037e-16 3.80487e-13 -1.45889e-08


Wall heat fluxes [W]
topAndBottom 0 0 0 0
left 2.59434 0 0 2.59434
right -2.59434 0 0 -2.59434
frontAndBack 0 0 0 0
sum 1.53584e-09 0 0 1.53584e-09

Time = 988

DILUPBiCG:  Solving for Ux, Initial residual = 1.54678e-10, Final residual = 1.2111e-12, No Iterations 1
DILUPBiCG:  Solving for Uy, Initial residual = 2.3586e-10, Final residual = 7.89899e-14, No Iterations 2
DICPCG:  Solving for p_rgh, Initial residual = 2.87939e-10, Final residual = 1.71122e-12, No Iterations 12
time step continuity errors : sum local = 6.32847e-12, global = -1.99053e-16, cumulative = 1.34402e-14
DILUPBiCG:  Solving for epsilon, Initial residual = 1.8764e-10, Final residual = 5.41076e-14, No Iterations 3
DILUPBiCG:  Solving for k, Initial residual = 3.33782e-10, Final residual = 2.32684e-12, No Iterations 2
DICPCG:  Solving for G, Initial residual = 7.56963e-12, Final residual = 2.08851e-13, No Iterations 11
Before T+T solve
BiCG:  Solving for T+T, Initial residual = 2.77886e-11, Final residual = 1.10439e-14, No Iterations 8
Tres = -1.4277e-08
TsRes = -1.38982e-10
ExecutionTime = 2.42 s



Wall heat fluxes [W]
movingWall 0.375476 -1.66493e-15 0.974645 1.35012
left 0.377248 -1.94242e-15 0.969302 1.34655
right -0.561393 -3.44773e-15 -2.03295 -2.59434
bottom -0.191331 0 0.0890037 -0.102327
frontAndBack 0 0 0 0
sum -1.4272e-08 -7.05507e-15 3.16788e-13 -1.42717e-08


Wall heat fluxes [W]
topAndBottom 0 0 0 0
left 2.59434 0 0 2.59434
right -2.59434 0 0 -2.59434
frontAndBack 0 0 0 0
sum 1.50148e-09 0 0 1.50148e-09

Time = 989

DILUPBiCG:  Solving for Ux, Initial residual = 1.51282e-10, Final residual = 1.18422e-12, No Iterations 1
DILUPBiCG:  Solving for Uy, Initial residual = 2.30693e-10, Final residual = 7.72793e-14, No Iterations 2
DICPCG:  Solving for p_rgh, Initial residual = 2.81606e-10, Final residual = 1.67383e-12, No Iterations 12
time step continuity errors : sum local = 6.18983e-12, global = -6.88214e-17, cumulative = 1.33714e-14
DILUPBiCG:  Solving for epsilon, Initial residual = 1.83344e-10, Final residual = 5.28904e-14, No Iterations 3
DILUPBiCG:  Solving for k, Initial residual = 3.26111e-10, Final residual = 2.27094e-12, No Iterations 2
DICPCG:  Solving for G, Initial residual = 7.47026e-12, Final residual = 1.848e-13, No Iterations 11
Before T+T solve
BiCG:  Solving for T+T, Initial residual = 2.71839e-11, Final residual = 1.081e-14, No Iterations 8
Tres = -1.39666e-08
TsRes = -1.35945e-10
ExecutionTime = 2.42 s



Wall heat fluxes [W]
movingWall 0.375476 1.66493e-15 0.974645 1.35012
left 0.377248 -3.39923e-15 0.969302 1.34655
right -0.561393 4.29741e-16 -2.03295 -2.59434
bottom -0.191331 0 0.0890037 -0.102327
frontAndBack 0 0 0 0
sum -1.39617e-08 -1.30456e-15 5.55472e-13 -1.39612e-08


Wall heat fluxes [W]
topAndBottom 0 0 0 0
left 2.59434 0 0 2.59434
right -2.59434 0 0 -2.59434
frontAndBack 0 0 0 0
sum 1.47021e-09 0 0 1.47021e-09

Time = 990

DILUPBiCG:  Solving for Ux, Initial residual = 1.47965e-10, Final residual = 1.15793e-12, No Iterations 1
DILUPBiCG:  Solving for Uy, Initial residual = 2.25638e-10, Final residual = 7.56062e-14, No Iterations 2
DICPCG:  Solving for p_rgh, Initial residual = 2.75407e-10, Final residual = 1.63721e-12, No Iterations 12
time step continuity errors : sum local = 6.054e-12, global = -2.64698e-17, cumulative = 1.33449e-14
DILUPBiCG:  Solving for epsilon, Initial residual = 1.79146e-10, Final residual = 5.1699e-14, No Iterations 3
DILUPBiCG:  Solving for k, Initial residual = 3.18616e-10, Final residual = 2.21639e-12, No Iterations 2
DICPCG:  Solving for G, Initial residual = 7.32592e-12, Final residual = 1.92474e-13, No Iterations 11
Before T+T solve
BiCG:  Solving for T+T, Initial residual = 2.65923e-11, Final residual = 1.05615e-14, No Iterations 8
Tres = -1.36628e-08
TsRes = -1.32997e-10
ExecutionTime = 2.43 s



Wall heat fluxes [W]
movingWall 0.375476 -1.66493e-15 0.974645 1.35012
left 0.377248 -1.17932e-15 0.969302 1.34655
right -0.561393 1.2896e-15 -2.03295 -2.59434
bottom -0.191331 0 0.0890037 -0.102327
frontAndBack 0 0 0 0
sum -1.36581e-08 -1.55465e-15 3.95947e-13 -1.36577e-08


Wall heat fluxes [W]
topAndBottom 0 0 0 0
left 2.59434 0 0 2.59434
right -2.59434 0 0 -2.59434
frontAndBack 0 0 0 0
sum 1.43761e-09 0 0 1.43761e-09

Time = 991

DILUPBiCG:  Solving for Ux, Initial residual = 1.44718e-10, Final residual = 1.13222e-12, No Iterations 1
DILUPBiCG:  Solving for Uy, Initial residual = 2.20694e-10, Final residual = 7.39667e-14, No Iterations 2
DICPCG:  Solving for p_rgh, Initial residual = 2.69347e-10, Final residual = 1.60142e-12, No Iterations 12
time step continuity errors : sum local = 5.92211e-12, global = -4.23516e-18, cumulative = 1.33407e-14
DILUPBiCG:  Solving for epsilon, Initial residual = 1.75044e-10, Final residual = 5.05351e-14, No Iterations 3
DILUPBiCG:  Solving for k, Initial residual = 3.11293e-10, Final residual = 2.16314e-12, No Iterations 2
DICPCG:  Solving for G, Initial residual = 7.21391e-12, Final residual = 1.81534e-13, No Iterations 11
Before T+T solve
BiCG:  Solving for T+T, Initial residual = 2.60135e-11, Final residual = 1.03353e-14, No Iterations 8
Tres = -1.33657e-08
TsRes = -1.29986e-10
ExecutionTime = 2.43 s



Wall heat fluxes [W]
movingWall 0.375476 0 0.974645 1.35012
left 0.377248 1.38744e-15 0.969302 1.34655
right -0.561393 -2.15391e-15 -2.03295 -2.59434
bottom -0.191331 0 0.0890037 -0.102327
frontAndBack 0 0 0 0
sum -1.33611e-08 -7.6647e-16 5.19487e-13 -1.33605e-08


Wall heat fluxes [W]
topAndBottom 0 0 0 0
left 2.59434 0 0 2.59434
right -2.59434 0 0 -2.59434
frontAndBack 0 0 0 0
sum 1.40738e-09 0 0 1.40738e-09

Time = 992

DILUPBiCG:  Solving for Ux, Initial residual = 1.41544e-10, Final residual = 1.10709e-12, No Iterations 1
DILUPBiCG:  Solving for Uy, Initial residual = 2.15858e-10, Final residual = 7.23628e-14, No Iterations 2
DICPCG:  Solving for p_rgh, Initial residual = 2.63419e-10, Final residual = 1.56637e-12, No Iterations 12
time step continuity errors : sum local = 5.79244e-12, global = -1.1382e-16, cumulative = 1.32268e-14
DILUPBiCG:  Solving for epsilon, Initial residual = 1.71036e-10, Final residual = 4.93981e-14, No Iterations 3
DILUPBiCG:  Solving for k, Initial residual = 3.04138e-10, Final residual = 2.11117e-12, No Iterations 2
DICPCG:  Solving for G, Initial residual = 7.15035e-12, Final residual = 1.83098e-13, No Iterations 11
Before T+T solve
BiCG:  Solving for T+T, Initial residual = 2.5447e-11, Final residual = 1.01226e-14, No Iterations 8
Tres = -1.30749e-08
TsRes = -1.27156e-10
ExecutionTime = 2.43 s



Wall heat fluxes [W]
movingWall 0.375476 -2.77488e-15 0.974645 1.35012
left 0.377248 -3.32986e-15 0.969302 1.34655
right -0.561393 4.31141e-15 -2.03295 -2.59434
bottom -0.191331 0 0.0890037 -0.102327
frontAndBack 0 0 0 0
sum -1.30704e-08 -1.79332e-15 -3.69982e-14 -1.30704e-08


Wall heat fluxes [W]
topAndBottom 0 0 0 0
left 2.59434 0 0 2.59434
right -2.59434 0 0 -2.59434
frontAndBack 0 0 0 0
sum 1.37321e-09 0 0 1.37321e-09

Time = 993

DILUPBiCG:  Solving for Ux, Initial residual = 1.38438e-10, Final residual = 1.08251e-12, No Iterations 1
DILUPBiCG:  Solving for Uy, Initial residual = 2.11127e-10, Final residual = 7.07956e-14, No Iterations 2
DICPCG:  Solving for p_rgh, Initial residual = 2.57622e-10, Final residual = 1.53215e-12, No Iterations 12
time step continuity errors : sum local = 5.66584e-12, global = 7.12037e-17, cumulative = 1.3298e-14
DILUPBiCG:  Solving for epsilon, Initial residual = 1.67119e-10, Final residual = 4.82861e-14, No Iterations 3
DILUPBiCG:  Solving for k, Initial residual = 2.97148e-10, Final residual = 2.06045e-12, No Iterations 2
DICPCG:  Solving for G, Initial residual = 6.93208e-12, Final residual = 1.6813e-13, No Iterations 11
Before T+T solve
BiCG:  Solving for T+T, Initial residual = 2.48927e-11, Final residual = 9.8857e-15, No Iterations 8
Tres = -1.27906e-08
TsRes = -1.24402e-10
ExecutionTime = 2.43 s



Wall heat fluxes [W]
movingWall 0.375476 3.32986e-15 0.974645 1.35012
left 0.377248 -4.7173e-15 0.969302 1.34655
right -0.561393 2.15982e-15 -2.03295 -2.59434
bottom -0.191331 0 0.0890037 -0.102327
frontAndBack 0 0 0 0
sum -1.27861e-08 7.72377e-16 6.46441e-13 -1.27855e-08


Wall heat fluxes [W]
topAndBottom 0 0 0 0
left 2.59434 0 0 2.59434
right -2.59434 0 0 -2.59434
frontAndBack 0 0 0 0
sum 1.34606e-09 0 0 1.34606e-09

Time = 994

DILUPBiCG:  Solving for Ux, Initial residual = 1.35404e-10, Final residual = 1.05847e-12, No Iterations 1
DILUPBiCG:  Solving for Uy, Initial residual = 2.065e-10, Final residual = 6.92612e-14, No Iterations 2
DICPCG:  Solving for p_rgh, Initial residual = 2.51954e-10, Final residual = 1.4986e-12, No Iterations 12
time step continuity errors : sum local = 5.54215e-12, global = -2.08052e-16, cumulative = 1.309e-14
DILUPBiCG:  Solving for epsilon, Initial residual = 1.63292e-10, Final residual = 4.71995e-14, No Iterations 3
DILUPBiCG:  Solving for k, Initial residual = 2.90318e-10, Final residual = 2.01093e-12, No Iterations 2
DICPCG:  Solving for G, Initial residual = 6.86906e-12, Final residual = 1.8313e-13, No Iterations 11
Before T+T solve
BiCG:  Solving for T+T, Initial residual = 2.43509e-11, Final residual = 9.69956e-15, No Iterations 8
Tres = -1.25122e-08
TsRes = -1.21658e-10
ExecutionTime = 2.44 s



Wall heat fluxes [W]
movingWall 0.375476 1.66493e-15 0.974645 1.35012
left 0.377248 -6.79846e-15 0.969302 1.34655
right -0.561393 -1.29434e-15 -2.03295 -2.59434
bottom -0.191331 0 0.0890037 -0.102327
frontAndBack 0 0 0 0
sum -1.25079e-08 -6.42787e-15 3.57339e-13 -1.25075e-08


Wall heat fluxes [W]
topAndBottom 0 0 0 0
left 2.59434 0 0 2.59434
right -2.59434 0 0 -2.59434
frontAndBack 0 0 0 0
sum 1.31547e-09 0 0 1.31547e-09

Time = 995

DILUPBiCG:  Solving for Ux, Initial residual = 1.32429e-10, Final residual = 1.03497e-12, No Iterations 1
DILUPBiCG:  Solving for Uy, Initial residual = 2.01974e-10, Final residual = 6.77616e-14, No Iterations 2
DICPCG:  Solving for p_rgh, Initial residual = 2.46407e-10, Final residual = 1.46583e-12, No Iterations 12
time step continuity errors : sum local = 5.42007e-12, global = -6.45863e-17, cumulative = 1.30254e-14
DILUPBiCG:  Solving for epsilon, Initial residual = 1.59553e-10, Final residual = 4.61368e-14, No Iterations 3
DILUPBiCG:  Solving for k, Initial residual = 2.83645e-10, Final residual = 1.96261e-12, No Iterations 2
DICPCG:  Solving for G, Initial residual = 6.60104e-12, Final residual = 1.64628e-13, No Iterations 11
Before T+T solve
BiCG:  Solving for T+T, Initial residual = 2.38198e-11, Final residual = 9.449e-15, No Iterations 8
Tres = -1.224e-08
TsRes = -1.18936e-10
ExecutionTime = 2.44 s



Wall heat fluxes [W]
movingWall 0.375476 -1.66493e-15 0.974645 1.35012
left 0.377248 -1.80367e-15 0.969302 1.34655
right -0.561393 3.44347e-15 -2.03295 -2.59434
bottom -0.191331 0 0.0890037 -0.102327
frontAndBack 0 0 0 0
sum -1.22357e-08 -2.51276e-17 2.45637e-13 -1.22355e-08


Wall heat fluxes [W]
topAndBottom 0 0 0 0
left 2.59434 0 0 2.59434
right -2.59434 0 0 -2.59434
frontAndBack 0 0 0 0
sum 1.28683e-09 0 0 1.28683e-09

Time = 996

DILUPBiCG:  Solving for Ux, Initial residual = 1.29525e-10, Final residual = 1.01199e-12, No Iterations 1
DILUPBiCG:  Solving for Uy, Initial residual = 1.97545e-10, Final residual = 6.62911e-14, No Iterations 2
DICPCG:  Solving for p_rgh, Initial residual = 2.40982e-10, Final residual = 1.43377e-12, No Iterations 12
time step continuity errors : sum local = 5.30187e-12, global = -7.41154e-18, cumulative = 1.3018e-14
DILUPBiCG:  Solving for epsilon, Initial residual = 1.55898e-10, Final residual = 4.50983e-14, No Iterations 3
DILUPBiCG:  Solving for k, Initial residual = 2.77124e-10, Final residual = 1.91546e-12, No Iterations 2
DICPCG:  Solving for G, Initial residual = 6.58704e-12, Final residual = 1.60142e-13, No Iterations 11
Before T+T solve
BiCG:  Solving for T+T, Initial residual = 2.33007e-11, Final residual = 9.27149e-15, No Iterations 8
Tres = -1.19736e-08
TsRes = -1.16548e-10
ExecutionTime = 2.44 s



Wall heat fluxes [W]
movingWall 0.375476 -1.66493e-15 0.974645 1.35012
left 0.377248 4.02358e-15 0.969302 1.34655
right -0.561393 -3.87254e-15 -2.03295 -2.59434
bottom -0.191331 0 0.0890037 -0.102327
frontAndBack 0 0 0 0
sum -1.19695e-08 -1.51389e-15 5.58734e-13 -1.19689e-08


Wall heat fluxes [W]
topAndBottom 0 0 0 0
left 2.59434 0 0 2.59434
right -2.59434 0 0 -2.59434
frontAndBack 0 0 0 0
sum 1.25792e-09 0 0 1.25792e-09

Time = 997

DILUPBiCG:  Solving for Ux, Initial residual = 1.26682e-10, Final residual = 9.89519e-13, No Iterations 1
DILUPBiCG:  Solving for Uy, Initial residual = 1.93215e-10, Final residual = 6.48543e-14, No Iterations 2
DICPCG:  Solving for p_rgh, Initial residual = 2.35676e-10, Final residual = 1.40237e-12, No Iterations 12
time step continuity errors : sum local = 5.18593e-12, global = -1.10114e-16, cumulative = 1.29079e-14
DILUPBiCG:  Solving for epsilon, Initial residual = 1.52328e-10, Final residual = 4.40856e-14, No Iterations 3
DILUPBiCG:  Solving for k, Initial residual = 2.70753e-10, Final residual = 1.86943e-12, No Iterations 2
DICPCG:  Solving for G, Initial residual = 6.38267e-12, Final residual = 1.75125e-13, No Iterations 11
Before T+T solve
BiCG:  Solving for T+T, Initial residual = 2.27938e-11, Final residual = 9.0589e-15, No Iterations 8
Tres = -1.1713e-08
TsRes = -1.13976e-10
ExecutionTime = 2.44 s



Wall heat fluxes [W]
movingWall 0.375476 0 0.974645 1.35012
left 0.377248 -4.78667e-15 0.969302 1.34655
right -0.561393 1.71615e-15 -2.03295 -2.59434
bottom -0.191331 0 0.0890037 -0.102327
frontAndBack 0 0 0 0
sum -1.1709e-08 -3.07052e-15 6.2543e-13 -1.17084e-08


Wall heat fluxes [W]
topAndBottom 0 0 0 0
left 2.59434 0 0 2.59434
right -2.59434 0 0 -2.59434
frontAndBack 0 0 0 0
sum 1.23175e-09 0 0 1.23175e-09

Time = 998

DILUPBiCG:  Solving for Ux, Initial residual = 1.23901e-10, Final residual = 9.67536e-13, No Iterations 1
DILUPBiCG:  Solving for Uy, Initial residual = 1.88978e-10, Final residual = 6.3448e-14, No Iterations 2
DICPCG:  Solving for p_rgh, Initial residual = 2.30488e-10, Final residual = 1.37168e-12, No Iterations 12
time step continuity errors : sum local = 5.07229e-12, global = 2.48816e-17, cumulative = 1.29328e-14
DILUPBiCG:  Solving for epsilon, Initial residual = 1.48839e-10, Final residual = 4.30961e-14, No Iterations 3
DILUPBiCG:  Solving for k, Initial residual = 2.64529e-10, Final residual = 1.82451e-12, No Iterations 2
DICPCG:  Solving for G, Initial residual = 6.26514e-12, Final residual = 1.52513e-13, No Iterations 11
Before T+T solve
BiCG:  Solving for T+T, Initial residual = 2.2297e-11, Final residual = 8.86042e-15, No Iterations 8
Tres = -1.14581e-08
TsRes = -1.1153e-10
ExecutionTime = 2.45 s



Wall heat fluxes [W]
movingWall 0.375476 -1.66493e-15 0.974645 1.35012
left 0.377248 5.06416e-15 0.969302 1.34655
right -0.561393 -3.01076e-15 -2.03295 -2.59434
bottom -0.191331 0 0.0890037 -0.102327
frontAndBack 0 0 0 0
sum -1.14541e-08 3.88468e-16 6.44429e-13 -1.14535e-08


Wall heat fluxes [W]
topAndBottom 0 0 0 0
left 2.59434 0 0 2.59434
right -2.59434 0 0 -2.59434
frontAndBack 0 0 0 0
sum 1.20582e-09 0 0 1.20582e-09

Time = 999

DILUPBiCG:  Solving for Ux, Initial residual = 1.21181e-10, Final residual = 9.46056e-13, No Iterations 1
DILUPBiCG:  Solving for Uy, Initial residual = 1.84834e-10, Final residual = 6.20723e-14, No Iterations 2
DICPCG:  Solving for p_rgh, Initial residual = 2.25414e-10, Final residual = 1.34165e-12, No Iterations 12
time step continuity errors : sum local = 4.96128e-12, global = 1.99053e-16, cumulative = 1.31318e-14
DILUPBiCG:  Solving for epsilon, Initial residual = 1.4543e-10, Final residual = 4.21294e-14, No Iterations 3
DILUPBiCG:  Solving for k, Initial residual = 2.58448e-10, Final residual = 1.78066e-12, No Iterations 2
DICPCG:  Solving for G, Initial residual = 6.09935e-12, Final residual = 1.6929e-13, No Iterations 11
Before T+T solve
BiCG:  Solving for T+T, Initial residual = 2.18116e-11, Final residual = 8.66045e-15, No Iterations 8
Tres = -1.12086e-08
TsRes = -1.08932e-10
ExecutionTime = 2.45 s



Wall heat fluxes [W]
movingWall 0.375476 2.77488e-15 0.974645 1.35012
left 0.377248 0 0.969302 1.34655
right -0.561393 6.02996e-15 -2.03295 -2.59434
bottom -0.191331 0 0.0890037 -0.102327
frontAndBack 0 0 0 0
sum -1.12047e-08 8.80484e-15 9.02056e-14 -1.12046e-08


Wall heat fluxes [W]
topAndBottom 0 0 0 0
left 2.59434 0 0 2.59434
right -2.59434 0 0 -2.59434
frontAndBack 0 0 0 0
sum 1.17667e-09 0 0 1.17667e-09

Time = 1000

DILUPBiCG:  Solving for Ux, Initial residual = 1.1852e-10, Final residual = 9.2504e-13, No Iterations 1
DILUPBiCG:  Solving for Uy, Initial residual = 1.80781e-10, Final residual = 6.0727e-14, No Iterations 2
DICPCG:  Solving for p_rgh, Initial residual = 2.20448e-10, Final residual = 1.31228e-12, No Iterations 12
time step continuity errors : sum local = 4.85244e-12, global = 2.13876e-16, cumulative = 1.33457e-14
DILUPBiCG:  Solving for epsilon, Initial residual = 1.42098e-10, Final residual = 4.11829e-14, No Iterations 3
DILUPBiCG:  Solving for k, Initial residual = 2.5251e-10, Final residual = 1.73786e-12, No Iterations 2
DICPCG:  Solving for G, Initial residual = 5.95962e-12, Final residual = 1.40437e-13, No Iterations 11
Before T+T solve
BiCG:  Solving for T+T, Initial residual = 2.13352e-11, Final residual = 8.50379e-15, No Iterations 8
Tres = -1.09646e-08
TsRes = -1.06698e-10
ExecutionTime = 2.45 s



Wall heat fluxes [W]
movingWall 0.375476 0 0.974645 1.35012
left 0.377248 7.49218e-15 0.969302 1.34655
right -0.561393 1.71905e-15 -2.03295 -2.59434
bottom -0.191331 0 0.0890037 -0.102327
frontAndBack 0 0 0 0
sum -1.09608e-08 9.21123e-15 8.20594e-14 -1.09607e-08


Wall heat fluxes [W]
topAndBottom 0 0 0 0
left 2.59434 0 0 2.59434
right -2.59434 0 0 -2.59434
frontAndBack 0 0 0 0
sum 1.15176e-09 0 0 1.15176e-09

End

