/*---------------------------------------------------------------------------*\
| =========                 |                                                 |
| \\      /  F ield         | OpenFOAM Extend Project: Open source CFD        |
|  \\    /   O peration     | Version:  1.6-ext                               |
|   \\  /    A nd           | Web:      www.extend-project.de                 |
|    \\/     M anipulation  |                                                 |
\*---------------------------------------------------------------------------*/
Build  : 1.6-ext-62b0c9cdf665
Exec   : chipAirCoolingSimpleFoam
Date   : Oct 21 2011
Time   : 15:51:07
Host   : galerius
PID    : 3772
Case   : /home/henrus/projects/ChipAirCooling/run/tutorial1_resistance/conjugateContactCavity
nProcs : 1
SigFpe : Enabling floating point exception trapping (FOAM_SIGFPE).

// * * * * * * * * * * * * * * * * * * * * * * * * * * * * * * * * * * * * * //
Create time

Create mesh for time = 0


    From function void polyMesh::initMesh()
    in file meshes/polyMesh/polyMeshInitMesh.C at line 82
    Truncating neighbour list at 180 for backward compatibility

Reading g
Reading transportProperties

Calculating field g.h

Reading field p_rgh

Reading field U

Reading field T

Reading/calculating face flux field phi

Selecting incompressible transport model Newtonian
Selecting RAS turbulence model kEpsilon
kEpsilonCoeffs
{
    Cmu             0.09;
    C1              1.44;
    C2              1.92;
    alphaEps        0.76923;
    sigmaEps        1.3;
}

Reading field kappaEff

Creating radiation model

Selecting radiationModel P1
Selecting absorptionEmissionModel constantAbsorptionEmission
Selecting scatterModel constantScatter
Reading field Tsolid

Reading solid thermal properties
Selecting thermal model multiMaterialZones
Selecting thermal model constant
Selecting thermal model constant
Selecting thermal gap model constant
Reading solid diffusivity k


Starting time loop

--> FOAM Warning : 
    From function dlLibraryTable::open(const dictionary& dict, const word& libsEntry, const TablePtr tablePtr)
    in file lnInclude/dlLibraryTableTemplates.C at line 68
    library "libairbusMaterialModels.so" did not introduce any new entries

Time = 1

DILUPBiCG:  Solving for Ux, Initial residual = 1, Final residual = 9.86721e-05, No Iterations 2
DILUPBiCG:  Solving for Uy, Initial residual = 1, Final residual = 0.000204448, No Iterations 2
DICPCG:  Solving for p_rgh, Initial residual = 1, Final residual = 0.00982502, No Iterations 6
time step continuity errors : sum local = 0.00311453, global = -1.32349e-19, cumulative = -1.32349e-19
DILUPBiCG:  Solving for epsilon, Initial residual = 0.0778347, Final residual = 0.000142816, No Iterations 2
DILUPBiCG:  Solving for k, Initial residual = 1, Final residual = 0.00248998, No Iterations 2
DICPCG:  Solving for G, Initial residual = 1, Final residual = 0.0255384, No Iterations 11
Before T+T solve
BiCG:  Solving for T+T, Initial residual = 0.310573, Final residual = 0.0275276, No Iterations 3
Tres = -1.12204
TsRes = -17.3542
ExecutionTime = 0.02 s



Wall heat fluxes [W]
movingWall 0.00823362 0 8.04921e-07 0.00823443
left 6.48009e-07 0 -1.20093e-06 -5.52923e-07
right -1.139 0 8.04921e-07 -1.139
bottom 0.00872589 0 -1.20093e-06 0.00872469
frontAndBack 0 0 0 0
sum -1.12204 0 -7.92022e-07 -1.12204


Wall heat fluxes [W]
topAndBottom 0 0 0 0
left 1.139 0 0 1.139
right -18.4932 0 0 -18.4932
frontAndBack 0 0 0 0
sum -17.3542 0 0 -17.3542

Time = 2

DILUPBiCG:  Solving for Ux, Initial residual = 0.893355, Final residual = 0.00769632, No Iterations 1
DILUPBiCG:  Solving for Uy, Initial residual = 0.559903, Final residual = 0.00529647, No Iterations 1
DICPCG:  Solving for p_rgh, Initial residual = 0.938542, Final residual = 0.00646686, No Iterations 5
time step continuity errors : sum local = 0.0179756, global = -3.09299e-16, cumulative = -3.09432e-16
DILUPBiCG:  Solving for epsilon, Initial residual = 0.0199358, Final residual = 2.50827e-05, No Iterations 2
DILUPBiCG:  Solving for k, Initial residual = 0.668234, Final residual = 0.00077893, No Iterations 2
DICPCG:  Solving for G, Initial residual = 0.99231, Final residual = 0.0333432, No Iterations 13
Before T+T solve
BiCG:  Solving for T+T, Initial residual = 0.0310143, Final residual = 0.00155694, No Iterations 5
Tres = -0.989961
TsRes = -5.86428
ExecutionTime = 0.02 s



Wall heat fluxes [W]
movingWall -0.158103 -7.40997e-17 0.230785 0.0726825
left 0.0067556 2.64633e-21 0.246052 0.252807
right -0.690421 -1.25166e-14 -0.706528 -1.39695
bottom -0.148192 0 0.229692 0.0815005
frontAndBack 0 0 0 0
sum -0.989961 -1.25907e-14 1.44087e-06 -0.989959


Wall heat fluxes [W]
topAndBottom 0 0 0 0
left 1.46654 0 0 1.46654
right -7.33082 0 0 -7.33082
frontAndBack 0 0 0 0
sum -5.86428 0 0 -5.86428

Time = 3

DILUPBiCG:  Solving for Ux, Initial residual = 0.420132, Final residual = 0.00380626, No Iterations 1
DILUPBiCG:  Solving for Uy, Initial residual = 0.629519, Final residual = 0.0053525, No Iterations 1
DICPCG:  Solving for p_rgh, Initial residual = 0.386449, Final residual = 0.00199219, No Iterations 6
time step continuity errors : sum local = 0.00969985, global = 8.20563e-17, cumulative = -2.27375e-16
DILUPBiCG:  Solving for epsilon, Initial residual = 0.0792514, Final residual = 4.99124e-05, No Iterations 2
DILUPBiCG:  Solving for k, Initial residual = 0.212365, Final residual = 0.000241006, No Iterations 2
DICPCG:  Solving for G, Initial residual = 0.152641, Final residual = 0.00378236, No Iterations 11
Before T+T solve
BiCG:  Solving for T+T, Initial residual = 0.00884405, Final residual = 0.000345948, No Iterations 5
Tres = -1.0203
TsRes = -3.47631
ExecutionTime = 0.03 s



Wall heat fluxes [W]
movingWall -0.144756 1.17592e-15 0.150321 0.00556535
left 0.00926723 1.91383e-18 0.323548 0.332815
right -0.759334 2.19217e-15 -0.602298 -1.36163
bottom -0.125479 0 0.128425 0.00294582
frontAndBack 0 0 0 0
sum -1.0203 3.37e-15 -3.59259e-06 -1.02031


Wall heat fluxes [W]
topAndBottom 0 0 0 0
left 1.41538 0 0 1.41538
right -4.89169 0 0 -4.89169
frontAndBack 0 0 0 0
sum -3.47631 0 0 -3.47631

Time = 4

DILUPBiCG:  Solving for Ux, Initial residual = 0.281128, Final residual = 0.00275887, No Iterations 1
DILUPBiCG:  Solving for Uy, Initial residual = 0.333727, Final residual = 0.00254473, No Iterations 1
DICPCG:  Solving for p_rgh, Initial residual = 0.177591, Final residual = 0.00114656, No Iterations 11
time step continuity errors : sum local = 0.00464286, global = 1.11636e-16, cumulative = -1.15739e-16
DILUPBiCG:  Solving for epsilon, Initial residual = 0.120376, Final residual = 0.000109481, No Iterations 2
DILUPBiCG:  Solving for k, Initial residual = 0.121926, Final residual = 0.000130057, No Iterations 2
DICPCG:  Solving for G, Initial residual = 0.13247, Final residual = 0.00459185, No Iterations 13
Before T+T solve
BiCG:  Solving for T+T, Initial residual = 0.00558742, Final residual = 0.000256879, No Iterations 5
Tres = -1.15347
TsRes = -2.13568
ExecutionTime = 0.03 s



Wall heat fluxes [W]
movingWall -0.197153 -7.55703e-16 0.228212 0.031059
left 0.0131481 2.00528e-17 0.4118 0.424948
right -0.791864 5.95376e-15 -0.851603 -1.64347
bottom -0.177606 0 0.211592 0.0339857
frontAndBack 0 0 0 0
sum -1.15347 5.21811e-15 3.87913e-07 -1.15347


Wall heat fluxes [W]
topAndBottom 0 0 0 0
left 1.69176 0 0 1.69176
right -3.82744 0 0 -3.82744
frontAndBack 0 0 0 0
sum -2.13568 0 0 -2.13568

Time = 5

DILUPBiCG:  Solving for Ux, Initial residual = 0.142533, Final residual = 0.00121739, No Iterations 1
DILUPBiCG:  Solving for Uy, Initial residual = 0.210988, Final residual = 0.00210079, No Iterations 1
DICPCG:  Solving for p_rgh, Initial residual = 0.117147, Final residual = 0.00108072, No Iterations 10
time step continuity errors : sum local = 0.00388615, global = 3.38482e-17, cumulative = -8.18909e-17
DILUPBiCG:  Solving for epsilon, Initial residual = 0.13445, Final residual = 0.000127283, No Iterations 2
DILUPBiCG:  Solving for k, Initial residual = 0.0906788, Final residual = 0.000169175, No Iterations 2
DICPCG:  Solving for G, Initial residual = 0.0976055, Final residual = 0.00264371, No Iterations 13
Before T+T solve
BiCG:  Solving for T+T, Initial residual = 0.00420388, Final residual = 0.000276144, No Iterations 4
Tres = -1.24285
TsRes = -1.40713
ExecutionTime = 0.03 s



Wall heat fluxes [W]
movingWall -0.22545 2.42567e-15 0.246639 0.0211883
left 0.0169042 3.98347e-17 0.493528 0.510432
right -0.82902 -1.52335e-15 -0.963977 -1.793
bottom -0.205286 0 0.22381 0.0185237
frontAndBack 0 0 0 0
sum -1.24285 9.42156e-16 -4.32687e-07 -1.24285


Wall heat fluxes [W]
topAndBottom 0 0 0 0
left 1.82452 0 0 1.82452
right -3.23166 0 0 -3.23166
frontAndBack 0 0 0 0
sum -1.40713 0 0 -1.40713

Time = 6

DILUPBiCG:  Solving for Ux, Initial residual = 0.0961954, Final residual = 0.000794131, No Iterations 1
DILUPBiCG:  Solving for Uy, Initial residual = 0.121562, Final residual = 0.00111282, No Iterations 1
DICPCG:  Solving for p_rgh, Initial residual = 0.0851007, Final residual = 0.000359739, No Iterations 10
time step continuity errors : sum local = 0.00116302, global = 3.38151e-17, cumulative = -4.80757e-17
DILUPBiCG:  Solving for epsilon, Initial residual = 0.120918, Final residual = 0.000113149, No Iterations 2
DILUPBiCG:  Solving for k, Initial residual = 0.075743, Final residual = 8.95471e-05, No Iterations 2
DICPCG:  Solving for G, Initial residual = 0.0625491, Final residual = 0.0018517, No Iterations 13
Before T+T solve
BiCG:  Solving for T+T, Initial residual = 0.00340187, Final residual = 0.000285146, No Iterations 3
Tres = -1.30009
TsRes = -0.970054
ExecutionTime = 0.03 s



Wall heat fluxes [W]
movingWall -0.2454 -6.09243e-16 0.263174 0.0177736
left 0.0210073 -2.49306e-16 0.552679 0.573686
right -0.846985 2.73521e-15 -1.06166 -1.90864
bottom -0.228716 0 0.245802 0.0170859
frontAndBack 0 0 0 0
sum -1.30009 1.87666e-15 -4.27711e-07 -1.30009


Wall heat fluxes [W]
topAndBottom 0 0 0 0
left 1.92614 0 0 1.92614
right -2.8962 0 0 -2.8962
frontAndBack 0 0 0 0
sum -0.970054 0 0 -0.970054

Time = 7

DILUPBiCG:  Solving for Ux, Initial residual = 0.0760809, Final residual = 0.000624145, No Iterations 1
DILUPBiCG:  Solving for Uy, Initial residual = 0.0863153, Final residual = 0.000679674, No Iterations 1
DICPCG:  Solving for p_rgh, Initial residual = 0.0713481, Final residual = 0.000682596, No Iterations 9
time step continuity errors : sum local = 0.00213619, global = -9.11057e-17, cumulative = -1.39181e-16
DILUPBiCG:  Solving for epsilon, Initial residual = 0.0987987, Final residual = 9.51458e-05, No Iterations 2
DILUPBiCG:  Solving for k, Initial residual = 0.06724, Final residual = 8.96788e-05, No Iterations 2
DICPCG:  Solving for G, Initial residual = 0.0431015, Final residual = 0.00126569, No Iterations 13
Before T+T solve
BiCG:  Solving for T+T, Initial residual = 0.0029485, Final residual = 0.00018071, No Iterations 3
Tres = -1.33002
TsRes = -0.650707
ExecutionTime = 0.03 s



Wall heat fluxes [W]
movingWall -0.257842 -1.17706e-15 0.271751 0.0139095
left 0.0248787 -5.63647e-17 0.596934 0.621813
right -0.85479 -2.74497e-15 -1.12444 -1.97923
bottom -0.242263 0 0.255756 0.0134932
frontAndBack 0 0 0 0
sum -1.33002 -3.97839e-15 -4.98946e-07 -1.33002


Wall heat fluxes [W]
topAndBottom 0 0 0 0
left 1.98686 0 0 1.98686
right -2.63756 0 0 -2.63756
frontAndBack 0 0 0 0
sum -0.650707 0 0 -0.650707

Time = 8

DILUPBiCG:  Solving for Ux, Initial residual = 0.0669134, Final residual = 0.000545707, No Iterations 1
DILUPBiCG:  Solving for Uy, Initial residual = 0.0720547, Final residual = 0.000486754, No Iterations 1
DICPCG:  Solving for p_rgh, Initial residual = 0.0691964, Final residual = 0.000372691, No Iterations 10
time step continuity errors : sum local = 0.00111082, global = -3.02161e-16, cumulative = -4.41342e-16
DILUPBiCG:  Solving for epsilon, Initial residual = 0.0777504, Final residual = 2.37543e-06, No Iterations 3
DILUPBiCG:  Solving for k, Initial residual = 0.0626747, Final residual = 9.6664e-05, No Iterations 2
DICPCG:  Solving for G, Initial residual = 0.030723, Final residual = 0.000895987, No Iterations 13
Before T+T solve
BiCG:  Solving for T+T, Initial residual = 0.00260189, Final residual = 0.000176514, No Iterations 3
Tres = -1.34264
TsRes = -0.455624
ExecutionTime = 0.03 s



Wall heat fluxes [W]
movingWall -0.265246 1.83522e-15 0.277205 0.0119594
left 0.0277889 -1.30072e-17 0.630228 0.658017
right -0.854907 -1.65487e-14 -1.16948 -2.02438
bottom -0.25028 0 0.262043 0.0117637
frontAndBack 0 0 0 0
sum -1.34264 -1.47265e-14 -4.39626e-07 -1.34264


Wall heat fluxes [W]
topAndBottom 0 0 0 0
left 2.0246 0 0 2.0246
right -2.48023 0 0 -2.48023
frontAndBack 0 0 0 0
sum -0.455624 0 0 -0.455624

Time = 9

DILUPBiCG:  Solving for Ux, Initial residual = 0.060079, Final residual = 0.000493323, No Iterations 1
DILUPBiCG:  Solving for Uy, Initial residual = 0.0638978, Final residual = 0.000443164, No Iterations 1
DICPCG:  Solving for p_rgh, Initial residual = 0.0711018, Final residual = 0.000442766, No Iterations 10
time step continuity errors : sum local = 0.00131542, global = -3.11946e-16, cumulative = -7.53289e-16
DILUPBiCG:  Solving for epsilon, Initial residual = 0.0610493, Final residual = 7.59966e-05, No Iterations 2
DILUPBiCG:  Solving for k, Initial residual = 0.0597507, Final residual = 9.2023e-05, No Iterations 2
DICPCG:  Solving for G, Initial residual = 0.0233227, Final residual = 0.000692015, No Iterations 13
Before T+T solve
BiCG:  Solving for T+T, Initial residual = 0.00239618, Final residual = 0.000161398, No Iterations 3
Tres = -1.34496
TsRes = -0.31237
ExecutionTime = 0.04 s



Wall heat fluxes [W]
movingWall -0.269006 3.15472e-15 0.279557 0.0105502
left 0.0299027 -3.85882e-16 0.656497 0.6864
right -0.850829 -1.66148e-14 -1.20084 -2.05166
bottom -0.255026 0 0.264782 0.00975515
frontAndBack 0 0 0 0
sum -1.34496 -1.3846e-14 -4.19993e-07 -1.34496


Wall heat fluxes [W]
topAndBottom 0 0 0 0
left 2.04794 0 0 2.04794
right -2.36031 0 0 -2.36031
frontAndBack 0 0 0 0
sum -0.31237 0 0 -0.31237

Time = 10

DILUPBiCG:  Solving for Ux, Initial residual = 0.0556046, Final residual = 0.000470205, No Iterations 1
DILUPBiCG:  Solving for Uy, Initial residual = 0.0591968, Final residual = 0.000425545, No Iterations 1
DICPCG:  Solving for p_rgh, Initial residual = 0.0710496, Final residual = 0.000690994, No Iterations 9
time step continuity errors : sum local = 0.00208409, global = -6.08805e-18, cumulative = -7.59377e-16
DILUPBiCG:  Solving for epsilon, Initial residual = 0.0501754, Final residual = 4.56101e-05, No Iterations 2
DILUPBiCG:  Solving for k, Initial residual = 0.0569941, Final residual = 8.19377e-05, No Iterations 2
DICPCG:  Solving for G, Initial residual = 0.0178047, Final residual = 0.000536764, No Iterations 13
Before T+T solve
BiCG:  Solving for T+T, Initial residual = 0.00226172, Final residual = 0.000145701, No Iterations 3
Tres = -1.34071
TsRes = -0.22395
ExecutionTime = 0.04 s



Wall heat fluxes [W]
movingWall -0.269717 -3.00767e-17 0.279024 0.00930677
left 0.0316109 -1.12729e-16 0.677055 0.708666
right -0.844717 -3.67621e-16 -1.22192 -2.06664
bottom -0.257884 0 0.265842 0.00795852
frontAndBack 0 0 0 0
sum -1.34071 -5.10427e-16 -3.67961e-07 -1.34071


Wall heat fluxes [W]
topAndBottom 0 0 0 0
left 2.06032 0 0 2.06032
right -2.28427 0 0 -2.28427
frontAndBack 0 0 0 0
sum -0.22395 0 0 -0.22395

Time = 11

DILUPBiCG:  Solving for Ux, Initial residual = 0.0528893, Final residual = 0.000458273, No Iterations 1
DILUPBiCG:  Solving for Uy, Initial residual = 0.0561672, Final residual = 0.000410501, No Iterations 1
DICPCG:  Solving for p_rgh, Initial residual = 0.0695478, Final residual = 0.000534464, No Iterations 9
time step continuity errors : sum local = 0.00164452, global = -7.54389e-18, cumulative = -7.66921e-16
DILUPBiCG:  Solving for epsilon, Initial residual = 0.0418964, Final residual = 3.63013e-05, No Iterations 2
DILUPBiCG:  Solving for k, Initial residual = 0.0543555, Final residual = 6.99328e-05, No Iterations 2
DICPCG:  Solving for G, Initial residual = 0.0141626, Final residual = 0.000434877, No Iterations 13
Before T+T solve
BiCG:  Solving for T+T, Initial residual = 0.00217954, Final residual = 0.000139777, No Iterations 3
Tres = -1.33293
TsRes = -0.158268
ExecutionTime = 0.04 s



Wall heat fluxes [W]
movingWall -0.268659 -1.94887e-15 0.277083 0.00842374
left 0.0330953 -4.42246e-16 0.693707 0.726803
right -0.837595 2.75505e-15 -1.2374 -2.07499
bottom -0.259772 0 0.266606 0.00683313
frontAndBack 0 0 0 0
sum -1.33293 3.63938e-16 -3.16144e-07 -1.33293


Wall heat fluxes [W]
topAndBottom 0 0 0 0
left 2.06776 0 0 2.06776
right -2.22603 0 0 -2.22603
frontAndBack 0 0 0 0
sum -0.158268 0 0 -0.158268

Time = 12

DILUPBiCG:  Solving for Ux, Initial residual = 0.0502199, Final residual = 0.000449369, No Iterations 1
DILUPBiCG:  Solving for Uy, Initial residual = 0.0526805, Final residual = 0.000392131, No Iterations 1
DICPCG:  Solving for p_rgh, Initial residual = 0.0678853, Final residual = 0.0004064, No Iterations 10
time step continuity errors : sum local = 0.00128232, global = -7.22625e-17, cumulative = -8.39183e-16
DILUPBiCG:  Solving for epsilon, Initial residual = 0.0357075, Final residual = 3.14761e-05, No Iterations 2
DILUPBiCG:  Solving for k, Initial residual = 0.0522698, Final residual = 6.59766e-05, No Iterations 2
DICPCG:  Solving for G, Initial residual = 0.011395, Final residual = 0.000362612, No Iterations 13
Before T+T solve
BiCG:  Solving for T+T, Initial residual = 0.0021325, Final residual = 0.000124872, No Iterations 3
Tres = -1.32328
TsRes = -0.116542
ExecutionTime = 0.04 s



Wall heat fluxes [W]
movingWall -0.266025 -1.2196e-15 0.273826 0.0078005
left 0.0345232 2.3413e-16 0.707275 0.741798
right -0.830994 -1.56555e-15 -1.24763 -2.07863
bottom -0.260788 0 0.266533 0.00574543
frontAndBack 0 0 0 0
sum -1.32328 -2.55102e-15 -2.82221e-07 -1.32328


Wall heat fluxes [W]
topAndBottom 0 0 0 0
left 2.07117 0 0 2.07117
right -2.18771 0 0 -2.18771
frontAndBack 0 0 0 0
sum -0.116542 0 0 -0.116542

Time = 13

DILUPBiCG:  Solving for Ux, Initial residual = 0.0468432, Final residual = 0.000444895, No Iterations 1
DILUPBiCG:  Solving for Uy, Initial residual = 0.0491199, Final residual = 0.000374242, No Iterations 1
DICPCG:  Solving for p_rgh, Initial residual = 0.0679479, Final residual = 0.000354222, No Iterations 10
time step continuity errors : sum local = 0.00115629, global = -1.76826e-16, cumulative = -1.01601e-15
DILUPBiCG:  Solving for epsilon, Initial residual = 0.0317684, Final residual = 2.86197e-05, No Iterations 2
DILUPBiCG:  Solving for k, Initial residual = 0.0513796, Final residual = 6.51326e-05, No Iterations 2
DICPCG:  Solving for G, Initial residual = 0.00951834, Final residual = 0.000309288, No Iterations 13
Before T+T solve
BiCG:  Solving for T+T, Initial residual = 0.0020951, Final residual = 0.000203263, No Iterations 1
Tres = -1.30938
TsRes = -0.119662
ExecutionTime = 0.05 s



Wall heat fluxes [W]
movingWall -0.262305 -3.92243e-15 0.269684 0.00737876
left 0.03584 -3.12174e-16 0.718709 0.754549
right -0.821363 -1.82304e-15 -1.2549 -2.07626
bottom -0.261549 0 0.266504 0.00495425
frontAndBack 0 0 0 0
sum -1.30938 -6.05764e-15 -2.33775e-07 -1.30938


Wall heat fluxes [W]
topAndBottom 0 0 0 0
left 2.06481 0 0 2.06481
right -2.18448 0 0 -2.18448
frontAndBack 0 0 0 0
sum -0.119662 0 0 -0.119662

Time = 14

DILUPBiCG:  Solving for Ux, Initial residual = 0.04397, Final residual = 2.08542e-06, No Iterations 2
DILUPBiCG:  Solving for Uy, Initial residual = 0.046057, Final residual = 0.000371507, No Iterations 1
DICPCG:  Solving for p_rgh, Initial residual = 0.0708264, Final residual = 0.00033181, No Iterations 10
time step continuity errors : sum local = 0.00114569, global = -1.972e-16, cumulative = -1.21321e-15
DILUPBiCG:  Solving for epsilon, Initial residual = 0.029163, Final residual = 2.68374e-05, No Iterations 2
DILUPBiCG:  Solving for k, Initial residual = 0.0510948, Final residual = 6.44892e-05, No Iterations 2
DICPCG:  Solving for G, Initial residual = 0.00813194, Final residual = 0.000274183, No Iterations 13
Before T+T solve
BiCG:  Solving for T+T, Initial residual = 0.00206061, Final residual = 0.000205881, No Iterations 1
Tres = -1.29435
TsRes = -0.119081
ExecutionTime = 0.05 s



Wall heat fluxes [W]
movingWall -0.257716 5.08124e-15 0.264785 0.00706885
left 0.037318 3.4686e-17 0.728544 0.765862
right -0.811898 -1.58133e-14 -1.25978 -2.07168
bottom -0.262057 0 0.266455 0.00439764
frontAndBack 0 0 0 0
sum -1.29435 -1.06974e-14 -2.06445e-07 -1.29435


Wall heat fluxes [W]
topAndBottom 0 0 0 0
left 2.06239 0 0 2.06239
right -2.18147 0 0 -2.18147
frontAndBack 0 0 0 0
sum -0.119081 0 0 -0.119081

Time = 15

DILUPBiCG:  Solving for Ux, Initial residual = 0.0426637, Final residual = 1.87394e-06, No Iterations 2
DILUPBiCG:  Solving for Uy, Initial residual = 0.0440555, Final residual = 0.000366804, No Iterations 1
DICPCG:  Solving for p_rgh, Initial residual = 0.0739425, Final residual = 0.000706262, No Iterations 9
time step continuity errors : sum local = 0.0027654, global = -5.3469e-17, cumulative = -1.26668e-15
DILUPBiCG:  Solving for epsilon, Initial residual = 0.0278625, Final residual = 2.56683e-05, No Iterations 2
DILUPBiCG:  Solving for k, Initial residual = 0.051446, Final residual = 6.74145e-05, No Iterations 2
DICPCG:  Solving for G, Initial residual = 0.00561964, Final residual = 0.000452674, No Iterations 11
Before T+T solve
BiCG:  Solving for T+T, Initial residual = 0.00208105, Final residual = 0.000139107, No Iterations 3
Tres = -1.28011
TsRes = -0.0942746
ExecutionTime = 0.05 s



Wall heat fluxes [W]
movingWall -0.251055 -2.55145e-15 0.257426 0.00637095
left 0.039285 -1.90773e-16 0.735317 0.774602
right -0.807154 8.00803e-16 -1.25718 -2.06433
bottom -0.261183 0 0.264432 0.00324986
frontAndBack 0 0 0 0
sum -1.28011 -1.94142e-15 -4.13962e-07 -1.28011


Wall heat fluxes [W]
topAndBottom 0 0 0 0
left 2.06106 0 0 2.06106
right -2.15534 0 0 -2.15534
frontAndBack 0 0 0 0
sum -0.0942746 0 0 -0.0942746

Time = 16

DILUPBiCG:  Solving for Ux, Initial residual = 0.0392249, Final residual = 1.5811e-06, No Iterations 2
DILUPBiCG:  Solving for Uy, Initial residual = 0.042677, Final residual = 0.000357152, No Iterations 1
DICPCG:  Solving for p_rgh, Initial residual = 0.0751226, Final residual = 0.000475092, No Iterations 9
time step continuity errors : sum local = 0.0019862, global = 1.23349e-16, cumulative = -1.14333e-15
DILUPBiCG:  Solving for epsilon, Initial residual = 0.0278451, Final residual = 2.48701e-05, No Iterations 2
DILUPBiCG:  Solving for k, Initial residual = 0.0521221, Final residual = 7.14798e-05, No Iterations 2
DICPCG:  Solving for G, Initial residual = 0.00557976, Final residual = 0.000188431, No Iterations 13
Before T+T solve
BiCG:  Solving for T+T, Initial residual = 0.00213161, Final residual = 0.00019077, No Iterations 1
Tres = -1.26461
TsRes = -0.102554
ExecutionTime = 0.05 s



Wall heat fluxes [W]
movingWall -0.244677 5.67138e-16 0.251281 0.00660427
left 0.0414071 -3.4686e-16 0.741888 0.783295
right -0.800268 4.99637e-15 -1.25769 -2.05796
bottom -0.261071 0 0.264521 0.0034499
frontAndBack 0 0 0 0
sum -1.26461 5.21665e-15 -8.81147e-08 -1.26461


Wall heat fluxes [W]
topAndBottom 0 0 0 0
left 2.05063 0 0 2.05063
right -2.15319 0 0 -2.15319
frontAndBack 0 0 0 0
sum -0.102554 0 0 -0.102554

Time = 17

DILUPBiCG:  Solving for Ux, Initial residual = 0.037496, Final residual = 1.55845e-06, No Iterations 2
DILUPBiCG:  Solving for Uy, Initial residual = 0.0402255, Final residual = 0.000342451, No Iterations 1
DICPCG:  Solving for p_rgh, Initial residual = 0.0758882, Final residual = 0.000281735, No Iterations 9
time step continuity errors : sum local = 0.00121404, global = -1.91641e-16, cumulative = -1.33497e-15
DILUPBiCG:  Solving for epsilon, Initial residual = 0.028388, Final residual = 2.51651e-05, No Iterations 2
DILUPBiCG:  Solving for k, Initial residual = 0.0529202, Final residual = 7.5735e-05, No Iterations 2
DICPCG:  Solving for G, Initial residual = 0.00698952, Final residual = 0.000245611, No Iterations 13
Before T+T solve
BiCG:  Solving for T+T, Initial residual = 0.0020795, Final residual = 0.000192333, No Iterations 1
Tres = -1.24932
TsRes = -0.101269
ExecutionTime = 0.05 s



Wall heat fluxes [W]
movingWall -0.239404 6.58808e-16 0.246699 0.00729502
left 0.0442494 6.41691e-16 0.750473 0.794722
right -0.791995 -9.50534e-15 -1.26341 -2.0554
bottom -0.262173 0 0.266236 0.0040624
frontAndBack 0 0 0 0
sum -1.24932 -8.20484e-15 -2.09837e-07 -1.24932


Wall heat fluxes [W]
topAndBottom 0 0 0 0
left 2.04961 0 0 2.04961
right -2.15087 0 0 -2.15087
frontAndBack 0 0 0 0
sum -0.101269 0 0 -0.101269

Time = 18

DILUPBiCG:  Solving for Ux, Initial residual = 0.036116, Final residual = 1.4806e-06, No Iterations 2
DILUPBiCG:  Solving for Uy, Initial residual = 0.0375251, Final residual = 0.000324479, No Iterations 1
DICPCG:  Solving for p_rgh, Initial residual = 0.0712056, Final residual = 0.000334061, No Iterations 9
time step continuity errors : sum local = 0.00156673, global = 1.42937e-17, cumulative = -1.32068e-15
DILUPBiCG:  Solving for epsilon, Initial residual = 0.0292915, Final residual = 2.67813e-05, No Iterations 2
DILUPBiCG:  Solving for k, Initial residual = 0.0539082, Final residual = 8.02286e-05, No Iterations 2
DICPCG:  Solving for G, Initial residual = 0.00526083, Final residual = 0.000271111, No Iterations 11
Before T+T solve
BiCG:  Solving for T+T, Initial residual = 0.00209735, Final residual = 0.000196278, No Iterations 1
Tres = -1.23455
TsRes = -0.102168
ExecutionTime = 0.06 s



Wall heat fluxes [W]
movingWall -0.231963 1.26586e-15 0.238475 0.00651215
left 0.0479567 -1.04058e-16 0.756836 0.804792
right -0.788964 -8.26656e-16 -1.25978 -2.04875
bottom -0.261585 0 0.264474 0.00288865
frontAndBack 0 0 0 0
sum -1.23455 3.35143e-16 -1.46907e-07 -1.23455


Wall heat fluxes [W]
topAndBottom 0 0 0 0
left 2.04634 0 0 2.04634
right -2.14851 0 0 -2.14851
frontAndBack 0 0 0 0
sum -0.102168 0 0 -0.102168

Time = 19

DILUPBiCG:  Solving for Ux, Initial residual = 0.0333863, Final residual = 1.4465e-06, No Iterations 2
DILUPBiCG:  Solving for Uy, Initial residual = 0.0369238, Final residual = 0.000301827, No Iterations 1
DICPCG:  Solving for p_rgh, Initial residual = 0.0571785, Final residual = 0.000285863, No Iterations 10
time step continuity errors : sum local = 0.00130419, global = 7.41154e-18, cumulative = -1.31327e-15
DILUPBiCG:  Solving for epsilon, Initial residual = 0.030321, Final residual = 2.99554e-05, No Iterations 2
DILUPBiCG:  Solving for k, Initial residual = 0.0550781, Final residual = 8.55366e-05, No Iterations 2
DICPCG:  Solving for G, Initial residual = 0.00494426, Final residual = 0.000443716, No Iterations 12
Before T+T solve
BiCG:  Solving for T+T, Initial residual = 0.00211546, Final residual = 0.000200401, No Iterations 1
Tres = -1.21847
TsRes = -0.103199
ExecutionTime = 0.06 s



Wall heat fluxes [W]
movingWall -0.225394 9.09281e-16 0.231433 0.0060383
left 0.0527928 -4.85604e-16 0.762802 0.815595
right -0.784258 1.19288e-15 -1.25891 -2.04317
bottom -0.261615 0 0.264675 0.00306003
frontAndBack 0 0 0 0
sum -1.21847 1.61656e-15 -2.23567e-07 -1.21847


Wall heat fluxes [W]
topAndBottom 0 0 0 0
left 2.04296 0 0 2.04296
right -2.14616 0 0 -2.14616
frontAndBack 0 0 0 0
sum -0.103199 0 0 -0.103199

Time = 20

DILUPBiCG:  Solving for Ux, Initial residual = 0.0303566, Final residual = 1.44427e-06, No Iterations 2
DILUPBiCG:  Solving for Uy, Initial residual = 0.0349145, Final residual = 0.000283223, No Iterations 1
DICPCG:  Solving for p_rgh, Initial residual = 0.0520895, Final residual = 0.000315422, No Iterations 10
time step continuity errors : sum local = 0.00145209, global = -3.52048e-17, cumulative = -1.34847e-15
DILUPBiCG:  Solving for epsilon, Initial residual = 0.0312664, Final residual = 3.34724e-05, No Iterations 2
DILUPBiCG:  Solving for k, Initial residual = 0.0562466, Final residual = 9.18819e-05, No Iterations 2
DICPCG:  Solving for G, Initial residual = 0.00484456, Final residual = 0.00029819, No Iterations 11
Before T+T solve
BiCG:  Solving for T+T, Initial residual = 0.00213052, Final residual = 0.000206087, No Iterations 1
Tres = -1.20113
TsRes = -0.105646
ExecutionTime = 0.06 s



Wall heat fluxes [W]
movingWall -0.218918 -6.33905e-16 0.225067 0.00614857
left 0.058844 -3.4686e-16 0.768496 0.82734
right -0.779638 6.40994e-16 -1.25782 -2.03746
bottom -0.26142 0 0.264254 0.0028346
frontAndBack 0 0 0 0
sum -1.20113 -3.39771e-16 -2.60357e-07 -1.20113


Wall heat fluxes [W]
topAndBottom 0 0 0 0
left 2.03819 0 0 2.03819
right -2.14384 0 0 -2.14384
frontAndBack 0 0 0 0
sum -0.105646 0 0 -0.105646

Time = 21

DILUPBiCG:  Solving for Ux, Initial residual = 0.0283743, Final residual = 1.51497e-06, No Iterations 2
DILUPBiCG:  Solving for Uy, Initial residual = 0.0331815, Final residual = 0.000261594, No Iterations 1
DICPCG:  Solving for p_rgh, Initial residual = 0.0567804, Final residual = 0.000293115, No Iterations 10
time step continuity errors : sum local = 0.00135567, global = 1.24408e-16, cumulative = -1.22406e-15
DILUPBiCG:  Solving for epsilon, Initial residual = 0.0319975, Final residual = 3.72365e-05, No Iterations 2
DILUPBiCG:  Solving for k, Initial residual = 0.0576157, Final residual = 9.75529e-05, No Iterations 2
DICPCG:  Solving for G, Initial residual = 0.00467621, Final residual = 0.000322244, No Iterations 11
Before T+T solve
BiCG:  Solving for T+T, Initial residual = 0.00213445, Final residual = 0.000212977, No Iterations 1
Tres = -1.18218
TsRes = -0.109141
ExecutionTime = 0.06 s



Wall heat fluxes [W]
movingWall -0.212391 -2.86973e-15 0.218388 0.00599664
left 0.066287 -4.16232e-16 0.774102 0.840389
right -0.774675 9.65305e-15 -1.25669 -2.03136
bottom -0.261401 0 0.264198 0.0027962
frontAndBack 0 0 0 0
sum -1.18218 6.36709e-15 -1.1029e-07 -1.18218


Wall heat fluxes [W]
topAndBottom 0 0 0 0
left 2.03241 0 0 2.03241
right -2.14155 0 0 -2.14155
frontAndBack 0 0 0 0
sum -0.109141 0 0 -0.109141

Time = 22

DILUPBiCG:  Solving for Ux, Initial residual = 0.0254284, Final residual = 1.54226e-06, No Iterations 2
DILUPBiCG:  Solving for Uy, Initial residual = 0.0318283, Final residual = 0.000256167, No Iterations 1
DICPCG:  Solving for p_rgh, Initial residual = 0.0539663, Final residual = 0.000261081, No Iterations 10
time step continuity errors : sum local = 0.0011854, global = -8.89385e-17, cumulative = -1.313e-15
DILUPBiCG:  Solving for epsilon, Initial residual = 0.0324363, Final residual = 4.13653e-05, No Iterations 2
DILUPBiCG:  Solving for k, Initial residual = 0.0588714, Final residual = 0.00010252, No Iterations 2
DICPCG:  Solving for G, Initial residual = 0.00465046, Final residual = 0.000193613, No Iterations 11
Before T+T solve
BiCG:  Solving for T+T, Initial residual = 0.00213076, Final residual = 0.000201875, No Iterations 2
Tres = -1.16053
TsRes = -0.107272
ExecutionTime = 0.07 s



Wall heat fluxes [W]
movingWall -0.205434 1.46195e-15 0.211958 0.00652368
left 0.0759602 9.36522e-16 0.779654 0.855614
right -0.769787 -7.9283e-15 -1.25577 -2.02556
bottom -0.261272 0 0.264162 0.00289014
frontAndBack 0 0 0 0
sum -1.16053 -5.52982e-15 -1.61501e-07 -1.16053


Wall heat fluxes [W]
topAndBottom 0 0 0 0
left 2.02735 0 0 2.02735
right -2.13462 0 0 -2.13462
frontAndBack 0 0 0 0
sum -0.107272 0 0 -0.107272

Time = 23

DILUPBiCG:  Solving for Ux, Initial residual = 0.0224787, Final residual = 1.58243e-06, No Iterations 2
DILUPBiCG:  Solving for Uy, Initial residual = 0.0303199, Final residual = 0.000232164, No Iterations 1
DICPCG:  Solving for p_rgh, Initial residual = 0.0431104, Final residual = 0.000244823, No Iterations 10
time step continuity errors : sum local = 0.00115686, global = -1.48231e-16, cumulative = -1.46123e-15
DILUPBiCG:  Solving for epsilon, Initial residual = 0.0325769, Final residual = 4.61652e-05, No Iterations 2
DILUPBiCG:  Solving for k, Initial residual = 0.0599287, Final residual = 0.000106934, No Iterations 2
DICPCG:  Solving for G, Initial residual = 0.00482501, Final residual = 0.000276415, No Iterations 11
Before T+T solve
BiCG:  Solving for T+T, Initial residual = 0.00210875, Final residual = 0.000200514, No Iterations 2
Tres = -1.13722
TsRes = -0.107064
ExecutionTime = 0.07 s



Wall heat fluxes [W]
movingWall -0.198362 -1.94915e-15 0.204799 0.00643741
left 0.086878 -7.28406e-16 0.785543 0.872421
right -0.764517 -3.00285e-15 -1.25461 -2.01913
bottom -0.261219 0 0.26427 0.00305135
frontAndBack 0 0 0 0
sum -1.13722 -5.68041e-15 -3.0159e-07 -1.13722


Wall heat fluxes [W]
topAndBottom 0 0 0 0
left 2.02064 0 0 2.02064
right -2.12771 0 0 -2.12771
frontAndBack 0 0 0 0
sum -0.107064 0 0 -0.107064

Time = 24

DILUPBiCG:  Solving for Ux, Initial residual = 0.0205911, Final residual = 1.72168e-06, No Iterations 2
DILUPBiCG:  Solving for Uy, Initial residual = 0.0285696, Final residual = 0.000230596, No Iterations 1
DICPCG:  Solving for p_rgh, Initial residual = 0.0335627, Final residual = 0.000291993, No Iterations 10
time step continuity errors : sum local = 0.00147145, global = -2.72639e-16, cumulative = -1.73387e-15
DILUPBiCG:  Solving for epsilon, Initial residual = 0.0326571, Final residual = 5.11419e-05, No Iterations 2
DILUPBiCG:  Solving for k, Initial residual = 0.0606472, Final residual = 0.000111282, No Iterations 2
DICPCG:  Solving for G, Initial residual = 0.00539931, Final residual = 0.000179317, No Iterations 11
Before T+T solve
BiCG:  Solving for T+T, Initial residual = 0.00207256, Final residual = 0.000198491, No Iterations 2
Tres = -1.11225
TsRes = -0.10624
ExecutionTime = 0.07 s



Wall heat fluxes [W]
movingWall -0.191855 -9.26327e-15 0.198451 0.0065964
left 0.0991359 -9.71208e-16 0.792064 0.8912
right -0.758177 -2.00326e-16 -1.25521 -2.01338
bottom -0.261351 0 0.264691 0.00334027
frontAndBack 0 0 0 0
sum -1.11225 -1.04348e-14 -1.31388e-07 -1.11225


Wall heat fluxes [W]
topAndBottom 0 0 0 0
left 2.01453 0 0 2.01453
right -2.12077 0 0 -2.12077
frontAndBack 0 0 0 0
sum -0.10624 0 0 -0.10624

Time = 25

DILUPBiCG:  Solving for Ux, Initial residual = 0.0191268, Final residual = 1.8038e-06, No Iterations 2
DILUPBiCG:  Solving for Uy, Initial residual = 0.026302, Final residual = 0.000228401, No Iterations 1
DICPCG:  Solving for p_rgh, Initial residual = 0.0262881, Final residual = 0.000107562, No Iterations 12
time step continuity errors : sum local = 0.000517865, global = -1.63054e-16, cumulative = -1.89692e-15
DILUPBiCG:  Solving for epsilon, Initial residual = 0.0325751, Final residual = 5.76063e-05, No Iterations 2
DILUPBiCG:  Solving for k, Initial residual = 0.0608629, Final residual = 0.000115101, No Iterations 2
DICPCG:  Solving for G, Initial residual = 0.00540554, Final residual = 0.000174022, No Iterations 11
Before T+T solve
BiCG:  Solving for T+T, Initial residual = 0.00203354, Final residual = 0.000199707, No Iterations 2
Tres = -1.08537
TsRes = -0.106472
ExecutionTime = 0.07 s



Wall heat fluxes [W]
movingWall -0.185463 2.81192e-15 0.191888 0.00642558
left 0.112696 -4.16232e-16 0.798695 0.911391
right -0.751388 -1.22635e-14 -1.25523 -2.00661
bottom -0.261217 0 0.264642 0.00342527
frontAndBack 0 0 0 0
sum -1.08537 -9.8678e-15 -1.62742e-07 -1.08537


Wall heat fluxes [W]
topAndBottom 0 0 0 0
left 2.00737 0 0 2.00737
right -2.11384 0 0 -2.11384
frontAndBack 0 0 0 0
sum -0.106472 0 0 -0.106472

Time = 26

DILUPBiCG:  Solving for Ux, Initial residual = 0.0176473, Final residual = 2.07038e-06, No Iterations 2
DILUPBiCG:  Solving for Uy, Initial residual = 0.0247742, Final residual = 0.000225074, No Iterations 1
DICPCG:  Solving for p_rgh, Initial residual = 0.0257958, Final residual = 0.000105922, No Iterations 12
time step continuity errors : sum local = 0.000523603, global = -3.29284e-16, cumulative = -2.22621e-15
DILUPBiCG:  Solving for epsilon, Initial residual = 0.0318463, Final residual = 6.87128e-05, No Iterations 2
DILUPBiCG:  Solving for k, Initial residual = 0.0605749, Final residual = 0.000116354, No Iterations 2
DICPCG:  Solving for G, Initial residual = 0.00546831, Final residual = 0.000167389, No Iterations 11
Before T+T solve
BiCG:  Solving for T+T, Initial residual = 0.00199604, Final residual = 6.84095e-05, No Iterations 3
Tres = -1.05953
TsRes = -0.0842651
ExecutionTime = 0.08 s



Wall heat fluxes [W]
movingWall -0.179858 -6.52384e-16 0.185751 0.00589294
left 0.127039 1.90773e-15 0.80541 0.932449
right -0.745738 -1.65593e-14 -1.25567 -2.00141
bottom -0.260977 0 0.264508 0.00353082
frontAndBack 0 0 0 0
sum -1.05953 -1.5304e-14 -1.65466e-07 -1.05953


Wall heat fluxes [W]
topAndBottom 0 0 0 0
left 2.00506 0 0 2.00506
right -2.08933 0 0 -2.08933
frontAndBack 0 0 0 0
sum -0.0842651 0 0 -0.0842651

Time = 27

DILUPBiCG:  Solving for Ux, Initial residual = 0.0160073, Final residual = 2.63572e-06, No Iterations 2
DILUPBiCG:  Solving for Uy, Initial residual = 0.0237898, Final residual = 0.000226647, No Iterations 1
DICPCG:  Solving for p_rgh, Initial residual = 0.0319557, Final residual = 0.000313928, No Iterations 7
time step continuity errors : sum local = 0.00216455, global = 1.55907e-16, cumulative = -2.0703e-15
DILUPBiCG:  Solving for epsilon, Initial residual = 0.0308176, Final residual = 9.29935e-05, No Iterations 2
DILUPBiCG:  Solving for k, Initial residual = 0.0598485, Final residual = 0.000113743, No Iterations 2
DICPCG:  Solving for G, Initial residual = 0.00534263, Final residual = 0.000313769, No Iterations 11
Before T+T solve
BiCG:  Solving for T+T, Initial residual = 0.00192126, Final residual = 0.000160703, No Iterations 2
Tres = -1.03106
TsRes = -0.0878788
ExecutionTime = 0.08 s



Wall heat fluxes [W]
movingWall -0.174506 -4.09315e-15 0.180535 0.00602952
left 0.14278 -6.59034e-16 0.811974 0.954755
right -0.73875 1.53827e-14 -1.25652 -1.99527
bottom -0.260584 0 0.264015 0.00343097
frontAndBack 0 0 0 0
sum -1.03106 1.06305e-14 -3.73816e-07 -1.03106


Wall heat fluxes [W]
topAndBottom 0 0 0 0
left 1.99549 0 0 1.99549
right -2.08337 0 0 -2.08337
frontAndBack 0 0 0 0
sum -0.0878788 0 0 -0.0878788

Time = 28

DILUPBiCG:  Solving for Ux, Initial residual = 0.015923, Final residual = 8.48766e-06, No Iterations 2
DILUPBiCG:  Solving for Uy, Initial residual = 0.0222726, Final residual = 3.24721e-06, No Iterations 2
DICPCG:  Solving for p_rgh, Initial residual = 0.0279994, Final residual = 0.00019569, No Iterations 11
time step continuity errors : sum local = 0.00101002, global = -1.18849e-16, cumulative = -2.18915e-15
DILUPBiCG:  Solving for epsilon, Initial residual = 0.0296364, Final residual = 9.84927e-07, No Iterations 3
DILUPBiCG:  Solving for k, Initial residual = 0.0586128, Final residual = 0.000107169, No Iterations 2
DICPCG:  Solving for G, Initial residual = 0.00672208, Final residual = 0.000485187, No Iterations 12
Before T+T solve
BiCG:  Solving for T+T, Initial residual = 0.00187142, Final residual = 0.000149878, No Iterations 2
Tres = -1.00372
TsRes = -0.0824884
ExecutionTime = 0.08 s



Wall heat fluxes [W]
movingWall -0.170317 -4.77971e-15 0.176653 0.00633529
left 0.15905 -4.23169e-15 0.820139 0.979189
right -0.731625 4.80244e-15 -1.26213 -1.99375
bottom -0.260825 0 0.265338 0.00451337
frontAndBack 0 0 0 0
sum -1.00372 -4.20896e-15 2.01687e-08 -1.00372


Wall heat fluxes [W]
topAndBottom 0 0 0 0
left 1.99544 0 0 1.99544
right -2.07793 0 0 -2.07793
frontAndBack 0 0 0 0
sum -0.0824884 0 0 -0.0824884

Time = 29

DILUPBiCG:  Solving for Ux, Initial residual = 0.0146189, Final residual = 3.6284e-06, No Iterations 2
DILUPBiCG:  Solving for Uy, Initial residual = 0.0202636, Final residual = 1.11176e-05, No Iterations 2
DICPCG:  Solving for p_rgh, Initial residual = 0.0292059, Final residual = 0.000263959, No Iterations 6
time step continuity errors : sum local = 0.00160913, global = 5.14837e-17, cumulative = -2.13767e-15
DILUPBiCG:  Solving for epsilon, Initial residual = 0.0280305, Final residual = 7.81691e-05, No Iterations 2
DILUPBiCG:  Solving for k, Initial residual = 0.0570577, Final residual = 8.92969e-05, No Iterations 2
DICPCG:  Solving for G, Initial residual = 0.00551873, Final residual = 0.000121748, No Iterations 11
Before T+T solve
BiCG:  Solving for T+T, Initial residual = 0.00184209, Final residual = 0.000161191, No Iterations 2
Tres = -0.974848
TsRes = -0.0853594
ExecutionTime = 0.08 s



Wall heat fluxes [W]
movingWall -0.16544 2.02432e-17 0.170251 0.00481115
left 0.175751 3.81546e-16 0.826428 1.00218
right -0.725861 1.22268e-15 -1.25928 -1.98514
bottom -0.259299 0 0.262597 0.00329832
frontAndBack 0 0 0 0
sum -0.974848 1.62447e-15 -2.01233e-07 -0.974848


Wall heat fluxes [W]
topAndBottom 0 0 0 0
left 1.98743 0 0 1.98743
right -2.07279 0 0 -2.07279
frontAndBack 0 0 0 0
sum -0.0853594 0 0 -0.0853594

Time = 30

DILUPBiCG:  Solving for Ux, Initial residual = 0.0144344, Final residual = 4.09609e-05, No Iterations 2
DILUPBiCG:  Solving for Uy, Initial residual = 0.0193145, Final residual = 4.17661e-06, No Iterations 2
DICPCG:  Solving for p_rgh, Initial residual = 0.036284, Final residual = 0.00034703, No Iterations 5
time step continuity errors : sum local = 0.00209219, global = 2.42463e-16, cumulative = -1.8952e-15
DILUPBiCG:  Solving for epsilon, Initial residual = 0.0266492, Final residual = 3.22449e-05, No Iterations 2
DILUPBiCG:  Solving for k, Initial residual = 0.0551235, Final residual = 0.000114655, No Iterations 2
DICPCG:  Solving for G, Initial residual = 0.00506575, Final residual = 0.000300219, No Iterations 11
Before T+T solve
BiCG:  Solving for T+T, Initial residual = 0.00181717, Final residual = 0.000166396, No Iterations 2
Tres = -0.946104
TsRes = -0.086333
ExecutionTime = 0.09 s



Wall heat fluxes [W]
movingWall -0.161567 -2.7818e-15 0.166434 0.00486735
left 0.192508 6.59034e-16 0.832241 1.02475
right -0.718963 1.29629e-14 -1.26049 -1.97946
bottom -0.258082 0 0.261818 0.00373599
frontAndBack 0 0 0 0
sum -0.946104 1.08401e-14 -3.54962e-07 -0.946104


Wall heat fluxes [W]
topAndBottom 0 0 0 0
left 1.9815 0 0 1.9815
right -2.06783 0 0 -2.06783
frontAndBack 0 0 0 0
sum -0.086333 0 0 -0.086333

Time = 31

DILUPBiCG:  Solving for Ux, Initial residual = 0.0135959, Final residual = 5.45098e-06, No Iterations 2
DILUPBiCG:  Solving for Uy, Initial residual = 0.0177527, Final residual = 8.26684e-06, No Iterations 2
DICPCG:  Solving for p_rgh, Initial residual = 0.0386897, Final residual = 0.000327613, No Iterations 5
time step continuity errors : sum local = 0.00199147, global = 1.3129e-16, cumulative = -1.76391e-15
DILUPBiCG:  Solving for epsilon, Initial residual = 0.0254093, Final residual = 2.3674e-05, No Iterations 2
DILUPBiCG:  Solving for k, Initial residual = 0.0530934, Final residual = 0.000103988, No Iterations 2
DICPCG:  Solving for G, Initial residual = 0.00513714, Final residual = 0.000373248, No Iterations 11
Before T+T solve
BiCG:  Solving for T+T, Initial residual = 0.00179023, Final residual = 0.000173345, No Iterations 2
Tres = -0.917666
TsRes = -0.0882752
ExecutionTime = 0.09 s



Wall heat fluxes [W]
movingWall -0.157898 1.33114e-15 0.162397 0.00449923
left 0.208986 2.11585e-15 0.837947 1.04693
right -0.71241 7.77638e-16 -1.2604 -1.97281
bottom -0.256344 0 0.260058 0.00371401
frontAndBack 0 0 0 0
sum -0.917666 4.22462e-15 -4.08048e-07 -0.917666


Wall heat fluxes [W]
topAndBottom 0 0 0 0
left 1.97456 0 0 1.97456
right -2.06283 0 0 -2.06283
frontAndBack 0 0 0 0
sum -0.0882752 0 0 -0.0882752

Time = 32

DILUPBiCG:  Solving for Ux, Initial residual = 0.0129617, Final residual = 4.3586e-06, No Iterations 2
DILUPBiCG:  Solving for Uy, Initial residual = 0.0166105, Final residual = 1.5805e-05, No Iterations 2
DICPCG:  Solving for p_rgh, Initial residual = 0.0375451, Final residual = 0.000321227, No Iterations 5
time step continuity errors : sum local = 0.00184355, global = 2.98314e-16, cumulative = -1.4656e-15
DILUPBiCG:  Solving for epsilon, Initial residual = 0.0241917, Final residual = 1.90052e-05, No Iterations 2
DILUPBiCG:  Solving for k, Initial residual = 0.0512454, Final residual = 9.66501e-05, No Iterations 2
DICPCG:  Solving for G, Initial residual = 0.0051395, Final residual = 0.000505712, No Iterations 11
Before T+T solve
BiCG:  Solving for T+T, Initial residual = 0.00175857, Final residual = 0.000122115, No Iterations 3
Tres = -0.891836
TsRes = -0.0714374
ExecutionTime = 0.09 s



Wall heat fluxes [W]
movingWall -0.154879 1.87024e-15 0.159054 0.00417473
left 0.224731 4.50918e-16 0.843608 1.06834
right -0.707284 9.72389e-15 -1.26096 -1.96825
bottom -0.254404 0 0.2583 0.00389607
frontAndBack 0 0 0 0
sum -0.891836 1.20451e-14 -5.26568e-07 -0.891836


Wall heat fluxes [W]
topAndBottom 0 0 0 0
left 1.97243 0 0 1.97243
right -2.04387 0 0 -2.04387
frontAndBack 0 0 0 0
sum -0.0714374 0 0 -0.0714374

Time = 33

DILUPBiCG:  Solving for Ux, Initial residual = 0.012083, Final residual = 9.71469e-05, No Iterations 1
DILUPBiCG:  Solving for Uy, Initial residual = 0.0157342, Final residual = 1.4011e-05, No Iterations 2
DICPCG:  Solving for p_rgh, Initial residual = 0.0350915, Final residual = 0.000283555, No Iterations 5
time step continuity errors : sum local = 0.00140441, global = 3.28225e-17, cumulative = -1.43278e-15
DILUPBiCG:  Solving for epsilon, Initial residual = 0.0231671, Final residual = 1.84119e-05, No Iterations 2
DILUPBiCG:  Solving for k, Initial residual = 0.0493065, Final residual = 9.1598e-05, No Iterations 2
DICPCG:  Solving for G, Initial residual = 0.00511957, Final residual = 0.000270744, No Iterations 12
Before T+T solve
BiCG:  Solving for T+T, Initial residual = 0.00170289, Final residual = 0.000145399, No Iterations 2
Tres = -0.86509
TsRes = -0.076223
ExecutionTime = 0.09 s



Wall heat fluxes [W]
movingWall -0.151999 -6.23335e-16 0.156245 0.00424544
left 0.239873 7.63092e-16 0.849153 1.08903
right -0.700877 -8.06662e-16 -1.26146 -1.96234
bottom -0.252087 0 0.256066 0.00397937
frontAndBack 0 0 0 0
sum -0.86509 -6.66905e-16 1.45527e-07 -0.86509


Wall heat fluxes [W]
topAndBottom 0 0 0 0
left 1.9627 0 0 1.9627
right -2.03893 0 0 -2.03893
frontAndBack 0 0 0 0
sum -0.076223 0 0 -0.076223

Time = 34

DILUPBiCG:  Solving for Ux, Initial residual = 0.0121585, Final residual = 0.000116287, No Iterations 1
DILUPBiCG:  Solving for Uy, Initial residual = 0.0147396, Final residual = 1.63778e-05, No Iterations 2
DICPCG:  Solving for p_rgh, Initial residual = 0.0322939, Final residual = 0.000280639, No Iterations 5
time step continuity errors : sum local = 0.00123508, global = -4.97715e-17, cumulative = -1.48255e-15
DILUPBiCG:  Solving for epsilon, Initial residual = 0.0221754, Final residual = 1.81584e-05, No Iterations 2
DILUPBiCG:  Solving for k, Initial residual = 0.0475587, Final residual = 9.17654e-05, No Iterations 2
DICPCG:  Solving for G, Initial residual = 0.00580432, Final residual = 0.000342497, No Iterations 12
Before T+T solve
BiCG:  Solving for T+T, Initial residual = 0.00165561, Final residual = 0.000146148, No Iterations 2
Tres = -0.83976
TsRes = -0.0747889
ExecutionTime = 0.09 s



Wall heat fluxes [W]
movingWall -0.150143 -6.78373e-16 0.154794 0.00465093
left 0.253973 -7.63092e-16 0.856182 1.11016
right -0.693245 -1.63339e-15 -1.26614 -1.95938
bottom -0.250346 0 0.255161 0.00481517
frontAndBack 0 0 0 0
sum -0.83976 -3.07485e-15 1.04741e-07 -0.83976


Wall heat fluxes [W]
topAndBottom 0 0 0 0
left 1.95938 0 0 1.95938
right -2.03417 0 0 -2.03417
frontAndBack 0 0 0 0
sum -0.0747889 0 0 -0.0747889

Time = 35

DILUPBiCG:  Solving for Ux, Initial residual = 0.0114997, Final residual = 9.59726e-05, No Iterations 1
DILUPBiCG:  Solving for Uy, Initial residual = 0.0138935, Final residual = 2.20248e-05, No Iterations 2
DICPCG:  Solving for p_rgh, Initial residual = 0.0309155, Final residual = 0.000174826, No Iterations 11
time step continuity errors : sum local = 0.000663741, global = 1.05879e-16, cumulative = -1.37667e-15
DILUPBiCG:  Solving for epsilon, Initial residual = 0.0210011, Final residual = 1.70208e-05, No Iterations 2
DILUPBiCG:  Solving for k, Initial residual = 0.0456549, Final residual = 9.63257e-05, No Iterations 2
DICPCG:  Solving for G, Initial residual = 0.0050151, Final residual = 0.000451066, No Iterations 10
Before T+T solve
BiCG:  Solving for T+T, Initial residual = 0.00162821, Final residual = 0.000161911, No Iterations 2
Tres = -0.814596
TsRes = -0.0786689
ExecutionTime = 0.1 s



Wall heat fluxes [W]
movingWall -0.14741 -6.91742e-16 0.151149 0.00373839
left 0.266926 -4.16232e-16 0.861846 1.12877
right -0.686884 7.66724e-15 -1.26419 -1.95108
bottom -0.247228 0 0.251198 0.00396931
frontAndBack 0 0 0 0
sum -0.814596 6.55926e-15 -3.23717e-07 -0.814596


Wall heat fluxes [W]
topAndBottom 0 0 0 0
left 1.95068 0 0 1.95068
right -2.02934 0 0 -2.02934
frontAndBack 0 0 0 0
sum -0.0786689 0 0 -0.0786689

Time = 36

DILUPBiCG:  Solving for Ux, Initial residual = 0.0111166, Final residual = 3.02925e-06, No Iterations 2
DILUPBiCG:  Solving for Uy, Initial residual = 0.0145957, Final residual = 9.376e-06, No Iterations 2
DICPCG:  Solving for p_rgh, Initial residual = 0.0293116, Final residual = 0.000270584, No Iterations 6
time step continuity errors : sum local = 0.0014928, global = 1.01115e-16, cumulative = -1.27555e-15
DILUPBiCG:  Solving for epsilon, Initial residual = 0.019753, Final residual = 1.55267e-05, No Iterations 2
DILUPBiCG:  Solving for k, Initial residual = 0.0439932, Final residual = 0.000106376, No Iterations 2
DICPCG:  Solving for G, Initial residual = 0.00485022, Final residual = 0.000266268, No Iterations 12
Before T+T solve
BiCG:  Solving for T+T, Initial residual = 0.00160088, Final residual = 0.000107364, No Iterations 3
Tres = -0.792657
TsRes = -0.0635624
ExecutionTime = 0.1 s



Wall heat fluxes [W]
movingWall -0.145427 -6.92747e-16 0.14922 0.00379296
left 0.278593 3.19111e-15 0.867393 1.14599
right -0.681402 -1.23198e-15 -1.26543 -1.94684
bottom -0.244422 0 0.248822 0.00440043
frontAndBack 0 0 0 0
sum -0.792657 1.26639e-15 1.25883e-07 -0.792657


Wall heat fluxes [W]
topAndBottom 0 0 0 0
left 1.94847 0 0 1.94847
right -2.01203 0 0 -2.01203
frontAndBack 0 0 0 0
sum -0.0635624 0 0 -0.0635624

Time = 37

DILUPBiCG:  Solving for Ux, Initial residual = 0.0108335, Final residual = 3.10474e-06, No Iterations 2
DILUPBiCG:  Solving for Uy, Initial residual = 0.0146376, Final residual = 8.43485e-06, No Iterations 2
DICPCG:  Solving for p_rgh, Initial residual = 0.0281458, Final residual = 0.000193162, No Iterations 10
time step continuity errors : sum local = 0.000688442, global = 1.62789e-16, cumulative = -1.11276e-15
DILUPBiCG:  Solving for epsilon, Initial residual = 0.0185222, Final residual = 1.39013e-05, No Iterations 2
DILUPBiCG:  Solving for k, Initial residual = 0.0422067, Final residual = 0.000119065, No Iterations 2
DICPCG:  Solving for G, Initial residual = 0.00471131, Final residual = 0.000437315, No Iterations 11
Before T+T solve
BiCG:  Solving for T+T, Initial residual = 0.00155322, Final residual = 0.000141132, No Iterations 2
Tres = -0.770736
TsRes = -0.0682376
ExecutionTime = 0.1 s



Wall heat fluxes [W]
movingWall -0.143428 9.80595e-16 0.147142 0.0037141
left 0.28911 5.13353e-15 0.872898 1.16201
right -0.67515 4.01976e-16 -1.26558 -1.94073
bottom -0.241268 0 0.24554 0.00427177
frontAndBack 0 0 0 0
sum -0.770736 6.5161e-15 -4.70826e-07 -0.770736


Wall heat fluxes [W]
topAndBottom 0 0 0 0
left 1.93897 0 0 1.93897
right -2.00721 0 0 -2.00721
frontAndBack 0 0 0 0
sum -0.0682376 0 0 -0.0682376

Time = 38

DILUPBiCG:  Solving for Ux, Initial residual = 0.0108153, Final residual = 1.96739e-05, No Iterations 2
DILUPBiCG:  Solving for Uy, Initial residual = 0.0144643, Final residual = 1.27735e-05, No Iterations 2
DICPCG:  Solving for p_rgh, Initial residual = 0.0266347, Final residual = 0.000239635, No Iterations 5
time step continuity errors : sum local = 0.0012439, global = -3.59989e-17, cumulative = -1.14876e-15
DILUPBiCG:  Solving for epsilon, Initial residual = 0.0174316, Final residual = 1.23349e-05, No Iterations 2
DILUPBiCG:  Solving for k, Initial residual = 0.0408118, Final residual = 0.000129512, No Iterations 2
DICPCG:  Solving for G, Initial residual = 0.00569517, Final residual = 0.000518538, No Iterations 11
Before T+T solve
BiCG:  Solving for T+T, Initial residual = 0.00151429, Final residual = 0.000142616, No Iterations 2
Tres = -0.75063
TsRes = -0.0667442
ExecutionTime = 0.1 s



Wall heat fluxes [W]
movingWall -0.142379 2.36726e-15 0.146507 0.00412853
left 0.298361 6.24348e-16 0.879675 1.17804
right -0.667891 -6.46338e-15 -1.26999 -1.93788
bottom -0.238721 0 0.243803 0.00508211
frontAndBack 0 0 0 0
sum -0.75063 -3.47177e-15 1.13018e-07 -0.75063


Wall heat fluxes [W]
topAndBottom 0 0 0 0
left 1.93573 0 0 1.93573
right -2.00247 0 0 -2.00247
frontAndBack 0 0 0 0
sum -0.0667442 0 0 -0.0667442

Time = 39

DILUPBiCG:  Solving for Ux, Initial residual = 0.0107405, Final residual = 3.16449e-06, No Iterations 2
DILUPBiCG:  Solving for Uy, Initial residual = 0.0141976, Final residual = 0.000139347, No Iterations 1
DICPCG:  Solving for p_rgh, Initial residual = 0.0255321, Final residual = 0.000255099, No Iterations 9
time step continuity errors : sum local = 0.000888842, global = 6.61744e-17, cumulative = -1.08259e-15
DILUPBiCG:  Solving for epsilon, Initial residual = 0.01639, Final residual = 1.0918e-05, No Iterations 2
DILUPBiCG:  Solving for k, Initial residual = 0.0394655, Final residual = 0.0001347, No Iterations 2
DICPCG:  Solving for G, Initial residual = 0.00484933, Final residual = 0.000323469, No Iterations 10
Before T+T solve
BiCG:  Solving for T+T, Initial residual = 0.00149323, Final residual = 9.74645e-05, No Iterations 3
Tres = -0.731944
TsRes = -0.0562751
ExecutionTime = 0.11 s



Wall heat fluxes [W]
movingWall -0.140537 1.99294e-15 0.143774 0.00323783
left 0.306672 -8.32464e-16 0.885204 1.19188
right -0.662924 3.21541e-15 -1.26815 -1.93108
bottom -0.235155 0 0.239176 0.0040209
frontAndBack 0 0 0 0
sum -0.731944 4.37589e-15 -3.96581e-07 -0.731944


Wall heat fluxes [W]
topAndBottom 0 0 0 0
left 1.93062 0 0 1.93062
right -1.98689 0 0 -1.98689
frontAndBack 0 0 0 0
sum -0.0562751 0 0 -0.0562751

Time = 40

DILUPBiCG:  Solving for Ux, Initial residual = 0.0103705, Final residual = 2.16896e-05, No Iterations 2
DILUPBiCG:  Solving for Uy, Initial residual = 0.0149916, Final residual = 0.000149543, No Iterations 1
DICPCG:  Solving for p_rgh, Initial residual = 0.0249881, Final residual = 0.000201869, No Iterations 5
time step continuity errors : sum local = 0.00102173, global = 9.52912e-18, cumulative = -1.07306e-15
DILUPBiCG:  Solving for epsilon, Initial residual = 0.0155002, Final residual = 9.79337e-06, No Iterations 2
DILUPBiCG:  Solving for k, Initial residual = 0.0384683, Final residual = 0.000132544, No Iterations 2
DICPCG:  Solving for G, Initial residual = 0.00441253, Final residual = 0.000440504, No Iterations 11
Before T+T solve
BiCG:  Solving for T+T, Initial residual = 0.00146671, Final residual = 0.000143544, No Iterations 1
Tres = -0.7134
TsRes = -0.0638365
ExecutionTime = 0.11 s



Wall heat fluxes [W]
movingWall -0.139197 6.54834e-16 0.142579 0.00338206
left 0.314174 -6.9372e-17 0.890474 1.20465
right -0.656309 -8.218e-16 -1.26948 -1.92579
bottom -0.232068 0 0.236426 0.00435773
frontAndBack 0 0 0 0
sum -0.7134 -2.36338e-16 -7.6167e-07 -0.713401


Wall heat fluxes [W]
topAndBottom 0 0 0 0
left 1.92162 0 0 1.92162
right -1.98546 0 0 -1.98546
frontAndBack 0 0 0 0
sum -0.0638365 0 0 -0.0638365

Time = 41

DILUPBiCG:  Solving for Ux, Initial residual = 0.0098478, Final residual = 2.88837e-06, No Iterations 2
DILUPBiCG:  Solving for Uy, Initial residual = 0.0147737, Final residual = 0.000145605, No Iterations 1
DICPCG:  Solving for p_rgh, Initial residual = 0.0250656, Final residual = 0.000126516, No Iterations 10
time step continuity errors : sum local = 0.000416566, global = 1.14084e-16, cumulative = -9.58976e-16
DILUPBiCG:  Solving for epsilon, Initial residual = 0.0145194, Final residual = 9.16448e-06, No Iterations 2
DILUPBiCG:  Solving for k, Initial residual = 0.0372497, Final residual = 0.000126671, No Iterations 2
DICPCG:  Solving for G, Initial residual = 0.00531471, Final residual = 0.000337, No Iterations 12
Before T+T solve
BiCG:  Solving for T+T, Initial residual = 0.00142307, Final residual = 8.03748e-05, No Iterations 3
Tres = -0.697638
TsRes = -0.0489387
ExecutionTime = 0.11 s



Wall heat fluxes [W]
movingWall -0.138452 -8.38581e-16 0.14213 0.00367805
left 0.320561 -4.16232e-16 0.896773 1.21733
right -0.650388 5.66602e-15 -1.27294 -1.92333
bottom -0.229359 0 0.23404 0.00468061
frontAndBack 0 0 0 0
sum -0.697638 4.41121e-15 1.88447e-07 -0.697638


Wall heat fluxes [W]
topAndBottom 0 0 0 0
left 1.92151 0 0 1.92151
right -1.97045 0 0 -1.97045
frontAndBack 0 0 0 0
sum -0.0489387 0 0 -0.0489387

Time = 42

DILUPBiCG:  Solving for Ux, Initial residual = 0.0100252, Final residual = 9.96429e-05, No Iterations 1
DILUPBiCG:  Solving for Uy, Initial residual = 0.014019, Final residual = 0.00013416, No Iterations 1
DICPCG:  Solving for p_rgh, Initial residual = 0.0227621, Final residual = 0.000184781, No Iterations 5
time step continuity errors : sum local = 0.000889898, global = 1.59613e-16, cumulative = -7.99364e-16
DILUPBiCG:  Solving for epsilon, Initial residual = 0.01363, Final residual = 8.56291e-06, No Iterations 2
DILUPBiCG:  Solving for k, Initial residual = 0.036022, Final residual = 0.000119135, No Iterations 2
DICPCG:  Solving for G, Initial residual = 0.00409987, Final residual = 0.000268043, No Iterations 10
Before T+T solve
BiCG:  Solving for T+T, Initial residual = 0.00141316, Final residual = 0.000133457, No Iterations 1
Tres = -0.680814
TsRes = -0.0591235
ExecutionTime = 0.11 s



Wall heat fluxes [W]
movingWall -0.136813 -5.03219e-16 0.13963 0.00281666
left 0.326251 5.27227e-15 0.901629 1.22788
right -0.644484 9.89442e-18 -1.2708 -1.91529
bottom -0.225769 0 0.229546 0.00377755
frontAndBack 0 0 0 0
sum -0.680814 4.77895e-15 -3.19182e-07 -0.680814


Wall heat fluxes [W]
topAndBottom 0 0 0 0
left 1.91013 0 0 1.91013
right -1.96925 0 0 -1.96925
frontAndBack 0 0 0 0
sum -0.0591235 0 0 -0.0591235

Time = 43

DILUPBiCG:  Solving for Ux, Initial residual = 0.00915702, Final residual = 8.40965e-06, No Iterations 2
DILUPBiCG:  Solving for Uy, Initial residual = 0.0147273, Final residual = 0.000141314, No Iterations 1
DICPCG:  Solving for p_rgh, Initial residual = 0.0224766, Final residual = 0.000170853, No Iterations 10
time step continuity errors : sum local = 0.000555994, global = 2.66551e-16, cumulative = -5.32813e-16
DILUPBiCG:  Solving for epsilon, Initial residual = 0.0129752, Final residual = 7.95203e-06, No Iterations 2
DILUPBiCG:  Solving for k, Initial residual = 0.0347795, Final residual = 0.000112285, No Iterations 2
DICPCG:  Solving for G, Initial residual = 0.00487916, Final residual = 0.000478398, No Iterations 11
Before T+T solve
BiCG:  Solving for T+T, Initial residual = 0.0013663, Final residual = 0.00013582, No Iterations 1
Tres = -0.66555
TsRes = -0.0608692
ExecutionTime = 0.11 s



Wall heat fluxes [W]
movingWall -0.136397 9.89166e-16 0.139938 0.00354037
left 0.331383 1.2487e-15 0.907548 1.23893
right -0.637185 9.30135e-15 -1.27543 -1.91262
bottom -0.223351 0 0.227946 0.00459424
frontAndBack 0 0 0 0
sum -0.66555 1.15392e-14 1.89657e-08 -0.66555


Wall heat fluxes [W]
topAndBottom 0 0 0 0
left 1.90715 0 0 1.90715
right -1.96801 0 0 -1.96801
frontAndBack 0 0 0 0
sum -0.0608692 0 0 -0.0608692

Time = 44

DILUPBiCG:  Solving for Ux, Initial residual = 0.009551, Final residual = 8.07291e-05, No Iterations 1
DILUPBiCG:  Solving for Uy, Initial residual = 0.0135644, Final residual = 0.000131418, No Iterations 1
DICPCG:  Solving for p_rgh, Initial residual = 0.0214697, Final residual = 0.00019416, No Iterations 5
time step continuity errors : sum local = 0.000785526, global = 1.38702e-16, cumulative = -3.94111e-16
DILUPBiCG:  Solving for epsilon, Initial residual = 0.0123859, Final residual = 7.32221e-06, No Iterations 2
DILUPBiCG:  Solving for k, Initial residual = 0.0336002, Final residual = 0.000103951, No Iterations 2
DICPCG:  Solving for G, Initial residual = 0.00400189, Final residual = 0.000308375, No Iterations 10
Before T+T solve
BiCG:  Solving for T+T, Initial residual = 0.00135667, Final residual = 8.91377e-05, No Iterations 3
Tres = -0.651454
TsRes = -0.0527024
ExecutionTime = 0.12 s



Wall heat fluxes [W]
movingWall -0.134793 3.42765e-16 0.13744 0.00264681
left 0.335823 1.38744e-15 0.912133 1.24796
right -0.632668 5.67064e-15 -1.27293 -1.90559
bottom -0.219816 0 0.223354 0.00353781
frontAndBack 0 0 0 0
sum -0.651454 7.40084e-15 -5.0486e-07 -0.651454


Wall heat fluxes [W]
topAndBottom 0 0 0 0
left 1.90285 0 0 1.90285
right -1.95555 0 0 -1.95555
frontAndBack 0 0 0 0
sum -0.0527024 0 0 -0.0527024

Time = 45

DILUPBiCG:  Solving for Ux, Initial residual = 0.00884973, Final residual = 7.47058e-05, No Iterations 1
DILUPBiCG:  Solving for Uy, Initial residual = 0.0138168, Final residual = 0.000131108, No Iterations 1
DICPCG:  Solving for p_rgh, Initial residual = 0.0200792, Final residual = 0.000198684, No Iterations 5
time step continuity errors : sum local = 0.000826366, global = 1.41349e-16, cumulative = -2.52763e-16
DILUPBiCG:  Solving for epsilon, Initial residual = 0.0118851, Final residual = 6.75778e-06, No Iterations 2
DILUPBiCG:  Solving for k, Initial residual = 0.0324917, Final residual = 9.83743e-05, No Iterations 2
DICPCG:  Solving for G, Initial residual = 0.00371452, Final residual = 0.00035992, No Iterations 11
Before T+T solve
BiCG:  Solving for T+T, Initial residual = 0.00135633, Final residual = 0.000133934, No Iterations 1
Tres = -0.637329
TsRes = -0.0600232
ExecutionTime = 0.12 s



Wall heat fluxes [W]
movingWall -0.133754 1.38247e-15 0.136588 0.00283367
left 0.339985 1.52618e-15 0.916563 1.25655
right -0.626607 4.46651e-15 -1.27388 -1.90049
bottom -0.216953 0 0.22073 0.00377753
frontAndBack 0 0 0 0
sum -0.637329 7.37516e-15 -5.55793e-07 -0.637329


Wall heat fluxes [W]
topAndBottom 0 0 0 0
left 1.89424 0 0 1.89424
right -1.95427 0 0 -1.95427
frontAndBack 0 0 0 0
sum -0.0600232 0 0 -0.0600232

Time = 46

DILUPBiCG:  Solving for Ux, Initial residual = 0.00819024, Final residual = 6.75735e-05, No Iterations 1
DILUPBiCG:  Solving for Uy, Initial residual = 0.0131305, Final residual = 0.000123513, No Iterations 1
DICPCG:  Solving for p_rgh, Initial residual = 0.0206139, Final residual = 9.44958e-05, No Iterations 6
time step continuity errors : sum local = 0.000488659, global = -1.68083e-16, cumulative = -4.20846e-16
DILUPBiCG:  Solving for epsilon, Initial residual = 0.0114225, Final residual = 6.25588e-06, No Iterations 2
DILUPBiCG:  Solving for k, Initial residual = 0.0313252, Final residual = 9.3459e-05, No Iterations 2
DICPCG:  Solving for G, Initial residual = 0.00475872, Final residual = 0.000314172, No Iterations 12
Before T+T solve
BiCG:  Solving for T+T, Initial residual = 0.00131293, Final residual = 8.45159e-05, No Iterations 3
Tres = -0.62512
TsRes = -0.044992
ExecutionTime = 0.12 s



Wall heat fluxes [W]
movingWall -0.133312 -2.34597e-15 0.136625 0.00331288
left 0.34392 -6.10474e-15 0.922248 1.26617
right -0.620991 2.02413e-15 -1.27777 -1.89876
bottom -0.214736 0 0.218896 0.00415935
frontAndBack 0 0 0 0
sum -0.62512 -6.42658e-15 1.51032e-07 -0.62512


Wall heat fluxes [W]
topAndBottom 0 0 0 0
left 1.8951 0 0 1.8951
right -1.94009 0 0 -1.94009
frontAndBack 0 0 0 0
sum -0.044992 0 0 -0.044992

Time = 47

DILUPBiCG:  Solving for Ux, Initial residual = 0.00874385, Final residual = 6.35314e-05, No Iterations 1
DILUPBiCG:  Solving for Uy, Initial residual = 0.0119971, Final residual = 0.000110118, No Iterations 1
DICPCG:  Solving for p_rgh, Initial residual = 0.0206514, Final residual = 8.09303e-05, No Iterations 6
time step continuity errors : sum local = 0.000391269, global = -2.34258e-17, cumulative = -4.44271e-16
DILUPBiCG:  Solving for epsilon, Initial residual = 0.0109235, Final residual = 5.78396e-06, No Iterations 2
DILUPBiCG:  Solving for k, Initial residual = 0.0300747, Final residual = 8.84161e-05, No Iterations 2
DICPCG:  Solving for G, Initial residual = 0.00361707, Final residual = 0.000259748, No Iterations 10
Before T+T solve
BiCG:  Solving for T+T, Initial residual = 0.00132499, Final residual = 0.000124875, No Iterations 1
Tres = -0.611456
TsRes = -0.0544389
ExecutionTime = 0.12 s



Wall heat fluxes [W]
movingWall -0.131862 -9.94777e-16 0.134276 0.00241428
left 0.347702 -2.49739e-15 0.926521 1.27422
right -0.615494 3.64041e-15 -1.27566 -1.89115
bottom -0.211802 0 0.214863 0.00306098
frontAndBack 0 0 0 0
sum -0.611456 1.4824e-16 -3.17687e-07 -0.611457


Wall heat fluxes [W]
topAndBottom 0 0 0 0
left 1.88456 0 0 1.88456
right -1.939 0 0 -1.939
frontAndBack 0 0 0 0
sum -0.0544389 0 0 -0.0544389

Time = 48

DILUPBiCG:  Solving for Ux, Initial residual = 0.00774248, Final residual = 5.87642e-05, No Iterations 1
DILUPBiCG:  Solving for Uy, Initial residual = 0.0128831, Final residual = 0.000110913, No Iterations 1
DICPCG:  Solving for p_rgh, Initial residual = 0.0219021, Final residual = 6.02571e-05, No Iterations 6
time step continuity errors : sum local = 0.000207226, global = 1.00453e-16, cumulative = -3.43819e-16
DILUPBiCG:  Solving for epsilon, Initial residual = 0.0103001, Final residual = 5.36116e-06, No Iterations 2
DILUPBiCG:  Solving for k, Initial residual = 0.0287176, Final residual = 8.40946e-05, No Iterations 2
DICPCG:  Solving for G, Initial residual = 0.00428164, Final residual = 0.000334558, No Iterations 11
Before T+T solve
BiCG:  Solving for T+T, Initial residual = 0.00126984, Final residual = 9.24955e-05, No Iterations 3
Tres = -0.599789
TsRes = -0.0420993
ExecutionTime = 0.13 s



Wall heat fluxes [W]
movingWall -0.131418 6.16918e-17 0.134659 0.00324089
left 0.351459 -2.49739e-15 0.931709 1.28317
right -0.609769 9.32884e-15 -1.28033 -1.8901
bottom -0.210062 0 0.213965 0.00390324
frontAndBack 0 0 0 0
sum -0.599789 6.89314e-15 1.40756e-08 -0.599789


Wall heat fluxes [W]
topAndBottom 0 0 0 0
left 1.88587 0 0 1.88587
right -1.92797 0 0 -1.92797
frontAndBack 0 0 0 0
sum -0.0420993 0 0 -0.0420993

Time = 49

DILUPBiCG:  Solving for Ux, Initial residual = 0.00835366, Final residual = 6.07843e-05, No Iterations 1
DILUPBiCG:  Solving for Uy, Initial residual = 0.0114953, Final residual = 0.00010705, No Iterations 1
DICPCG:  Solving for p_rgh, Initial residual = 0.0213047, Final residual = 9.02701e-05, No Iterations 6
time step continuity errors : sum local = 0.000458337, global = 1.36055e-16, cumulative = -2.07764e-16
DILUPBiCG:  Solving for epsilon, Initial residual = 0.00959356, Final residual = 4.9653e-06, No Iterations 2
DILUPBiCG:  Solving for k, Initial residual = 0.0271233, Final residual = 7.8454e-05, No Iterations 2
DICPCG:  Solving for G, Initial residual = 0.00346794, Final residual = 0.000304831, No Iterations 10
Before T+T solve
BiCG:  Solving for T+T, Initial residual = 0.00128925, Final residual = 0.00012008, No Iterations 1
Tres = -0.586552
TsRes = -0.0513232
ExecutionTime = 0.13 s



Wall heat fluxes [W]
movingWall -0.129866 3.00513e-16 0.132199 0.0023332
left 0.35522 2.08116e-15 0.935727 1.29095
right -0.604433 2.84475e-15 -1.27812 -1.88255
bottom -0.207473 0 0.210189 0.00271626
frontAndBack 0 0 0 0
sum -0.586552 5.22642e-15 -3.65597e-07 -0.586552


Wall heat fluxes [W]
topAndBottom 0 0 0 0
left 1.87561 0 0 1.87561
right -1.92694 0 0 -1.92694
frontAndBack 0 0 0 0
sum -0.0513232 0 0 -0.0513232

Time = 50

DILUPBiCG:  Solving for Ux, Initial residual = 0.00727625, Final residual = 5.64512e-05, No Iterations 1
DILUPBiCG:  Solving for Uy, Initial residual = 0.0121017, Final residual = 0.000107481, No Iterations 1
DICPCG:  Solving for p_rgh, Initial residual = 0.0215901, Final residual = 0.000197376, No Iterations 6
time step continuity errors : sum local = 0.00100928, global = -7.3983e-17, cumulative = -2.81747e-16
DILUPBiCG:  Solving for epsilon, Initial residual = 0.00890727, Final residual = 4.5993e-06, No Iterations 2
DILUPBiCG:  Solving for k, Initial residual = 0.0254699, Final residual = 7.37691e-05, No Iterations 2
DICPCG:  Solving for G, Initial residual = 0.00405585, Final residual = 0.000347589, No Iterations 11
Before T+T solve
BiCG:  Solving for T+T, Initial residual = 0.00122484, Final residual = 0.000121948, No Iterations 1
Tres = -0.574202
TsRes = -0.0522146
ExecutionTime = 0.13 s



Wall heat fluxes [W]
movingWall -0.129328 -3.56653e-16 0.132429 0.00310057
left 0.35909 -2.77488e-16 0.940599 1.29969
right -0.597843 -1.60511e-15 -1.28269 -1.88053
bottom -0.206121 0 0.209663 0.00354183
frontAndBack 0 0 0 0
sum -0.574202 -2.23925e-15 2.78715e-08 -0.574202


Wall heat fluxes [W]
topAndBottom 0 0 0 0
left 1.87364 0 0 1.87364
right -1.92586 0 0 -1.92586
frontAndBack 0 0 0 0
sum -0.0522146 0 0 -0.0522146

Time = 51

DILUPBiCG:  Solving for Ux, Initial residual = 0.00785239, Final residual = 5.98442e-05, No Iterations 1
DILUPBiCG:  Solving for Uy, Initial residual = 0.0109582, Final residual = 0.000106237, No Iterations 1
DICPCG:  Solving for p_rgh, Initial residual = 0.0209629, Final residual = 0.000204251, No Iterations 10
time step continuity errors : sum local = 0.00071249, global = 1.64113e-17, cumulative = -2.65336e-16
DILUPBiCG:  Solving for epsilon, Initial residual = 0.00812871, Final residual = 4.35891e-06, No Iterations 2
DILUPBiCG:  Solving for k, Initial residual = 0.0237224, Final residual = 6.76752e-05, No Iterations 2
DICPCG:  Solving for G, Initial residual = 0.0032391, Final residual = 0.000165854, No Iterations 11
Before T+T solve
BiCG:  Solving for T+T, Initial residual = 0.00121061, Final residual = 9.41305e-05, No Iterations 3
Tres = -0.562305
TsRes = -0.0448909
ExecutionTime = 0.13 s



Wall heat fluxes [W]
movingWall -0.12759 1.68496e-15 0.129965 0.00237426
left 0.362937 2.49739e-15 0.94433 1.30727
right -0.593808 -4.05031e-15 -1.28062 -1.87442
bottom -0.203843 0 0.206322 0.00247885
frontAndBack 0 0 0 0
sum -0.562305 1.32041e-16 -5.16879e-08 -0.562305


Wall heat fluxes [W]
topAndBottom 0 0 0 0
left 1.87036 0 0 1.87036
right -1.91525 0 0 -1.91525
frontAndBack 0 0 0 0
sum -0.0448909 0 0 -0.0448909

Time = 52

DILUPBiCG:  Solving for Ux, Initial residual = 0.00706009, Final residual = 5.23848e-05, No Iterations 1
DILUPBiCG:  Solving for Uy, Initial residual = 0.0112493, Final residual = 9.78992e-05, No Iterations 1
DICPCG:  Solving for p_rgh, Initial residual = 0.0189722, Final residual = 7.70289e-05, No Iterations 6
time step continuity errors : sum local = 0.000404572, global = -4.49986e-18, cumulative = -2.69836e-16
DILUPBiCG:  Solving for epsilon, Initial residual = 0.0072266, Final residual = 4.26955e-06, No Iterations 2
DILUPBiCG:  Solving for k, Initial residual = 0.0217092, Final residual = 6.22744e-05, No Iterations 2
DICPCG:  Solving for G, Initial residual = 0.00293912, Final residual = 0.000205148, No Iterations 11
Before T+T solve
BiCG:  Solving for T+T, Initial residual = 0.00122003, Final residual = 0.000119735, No Iterations 1
Tres = -0.550022
TsRes = -0.0509282
ExecutionTime = 0.14 s



Wall heat fluxes [W]
movingWall -0.126264 5.73488e-16 0.128828 0.0025637
left 0.366968 2.15053e-15 0.947928 1.3149
right -0.588462 -1.22039e-15 -1.28174 -1.8702
bottom -0.202265 0 0.204983 0.00271807
frontAndBack 0 0 0 0
sum -0.550022 1.50363e-15 -2.72274e-07 -0.550022


Wall heat fluxes [W]
topAndBottom 0 0 0 0
left 1.86329 0 0 1.86329
right -1.91422 0 0 -1.91422
frontAndBack 0 0 0 0
sum -0.0509282 0 0 -0.0509282

Time = 53

DILUPBiCG:  Solving for Ux, Initial residual = 0.00651007, Final residual = 5.20062e-05, No Iterations 1
DILUPBiCG:  Solving for Uy, Initial residual = 0.0104926, Final residual = 9.87146e-05, No Iterations 1
DICPCG:  Solving for p_rgh, Initial residual = 0.0179313, Final residual = 0.000138415, No Iterations 6
time step continuity errors : sum local = 0.000721376, global = -1.19906e-16, cumulative = -3.89742e-16
DILUPBiCG:  Solving for epsilon, Initial residual = 0.00656201, Final residual = 4.13557e-06, No Iterations 2
DILUPBiCG:  Solving for k, Initial residual = 0.01993, Final residual = 5.90362e-05, No Iterations 2
DICPCG:  Solving for G, Initial residual = 0.00382031, Final residual = 0.000295936, No Iterations 12
Before T+T solve
BiCG:  Solving for T+T, Initial residual = 0.00115891, Final residual = 8.60034e-05, No Iterations 3
Tres = -0.538926
TsRes = -0.0381171
ExecutionTime = 0.14 s



Wall heat fluxes [W]
movingWall -0.125357 -1.36324e-15 0.128396 0.00303992
left 0.371158 -1.7343e-15 0.952601 1.32376
right -0.583518 -2.44764e-15 -1.28525 -1.86876
bottom -0.201209 0 0.204249 0.00304006
frontAndBack 0 0 0 0
sum -0.538926 -5.54517e-15 7.7426e-08 -0.538925


Wall heat fluxes [W]
topAndBottom 0 0 0 0
left 1.86441 0 0 1.86441
right -1.90253 0 0 -1.90253
frontAndBack 0 0 0 0
sum -0.0381171 0 0 -0.0381171

Time = 54

DILUPBiCG:  Solving for Ux, Initial residual = 0.0069826, Final residual = 5.33329e-05, No Iterations 1
DILUPBiCG:  Solving for Uy, Initial residual = 0.00950416, Final residual = 1.1211e-06, No Iterations 2
DICPCG:  Solving for p_rgh, Initial residual = 0.0162659, Final residual = 9.35494e-05, No Iterations 11
time step continuity errors : sum local = 0.000323355, global = 6.4851e-17, cumulative = -3.24891e-16
DILUPBiCG:  Solving for epsilon, Initial residual = 0.00605512, Final residual = 4.00058e-06, No Iterations 2
DILUPBiCG:  Solving for k, Initial residual = 0.0185264, Final residual = 5.78908e-05, No Iterations 2
DICPCG:  Solving for G, Initial residual = 0.00295919, Final residual = 0.000192938, No Iterations 11
Before T+T solve
BiCG:  Solving for T+T, Initial residual = 0.00116689, Final residual = 0.000110677, No Iterations 1
Tres = -0.526528
TsRes = -0.045801
ExecutionTime = 0.14 s



Wall heat fluxes [W]
movingWall -0.123549 7.55664e-16 0.125821 0.00227202
left 0.375408 1.52618e-15 0.956097 1.33151
right -0.578855 1.22516e-15 -1.28359 -1.86245
bottom -0.199533 0 0.201676 0.00214267
frontAndBack 0 0 0 0
sum -0.526528 3.50701e-15 -2.88511e-07 -0.526529


Wall heat fluxes [W]
topAndBottom 0 0 0 0
left 1.8558 0 0 1.8558
right -1.9016 0 0 -1.9016
frontAndBack 0 0 0 0
sum -0.045801 0 0 -0.045801

Time = 55

DILUPBiCG:  Solving for Ux, Initial residual = 0.00598668, Final residual = 4.66393e-05, No Iterations 1
DILUPBiCG:  Solving for Uy, Initial residual = 0.0102367, Final residual = 9.39928e-05, No Iterations 1
DICPCG:  Solving for p_rgh, Initial residual = 0.0152716, Final residual = 9.48513e-05, No Iterations 6
time step continuity errors : sum local = 0.00050954, global = -2.22348e-16, cumulative = -5.47239e-16
DILUPBiCG:  Solving for epsilon, Initial residual = 0.00558945, Final residual = 3.80519e-06, No Iterations 2
DILUPBiCG:  Solving for k, Initial residual = 0.0172383, Final residual = 6.03023e-05, No Iterations 2
DICPCG:  Solving for G, Initial residual = 0.00350464, Final residual = 0.000294019, No Iterations 12
Before T+T solve
BiCG:  Solving for T+T, Initial residual = 0.00110683, Final residual = 8.89324e-05, No Iterations 3
Tres = -0.51558
TsRes = -0.0349298
ExecutionTime = 0.14 s



Wall heat fluxes [W]
movingWall -0.122566 1.37529e-15 0.125587 0.00302106
left 0.379842 -2.42802e-15 0.960382 1.34022
right -0.574048 -6.50044e-15 -1.28767 -1.86172
bottom -0.198809 0 0.201704 0.00289474
frontAndBack 0 0 0 0
sum -0.51558 -7.55317e-15 4.2201e-08 -0.51558


Wall heat fluxes [W]
topAndBottom 0 0 0 0
left 1.85745 0 0 1.85745
right -1.89238 0 0 -1.89238
frontAndBack 0 0 0 0
sum -0.0349298 0 0 -0.0349298

Time = 56

DILUPBiCG:  Solving for Ux, Initial residual = 0.00659039, Final residual = 4.92779e-05, No Iterations 1
DILUPBiCG:  Solving for Uy, Initial residual = 0.00872804, Final residual = 1.12865e-06, No Iterations 2
DICPCG:  Solving for p_rgh, Initial residual = 0.0140888, Final residual = 7.46048e-05, No Iterations 11
time step continuity errors : sum local = 0.000259239, global = 9.76735e-17, cumulative = -4.49565e-16
DILUPBiCG:  Solving for epsilon, Initial residual = 0.0051385, Final residual = 3.57383e-06, No Iterations 2
DILUPBiCG:  Solving for k, Initial residual = 0.0160089, Final residual = 6.26996e-05, No Iterations 2
DICPCG:  Solving for G, Initial residual = 0.00281326, Final residual = 0.000169457, No Iterations 11
Before T+T solve
BiCG:  Solving for T+T, Initial residual = 0.00112216, Final residual = 0.00010448, No Iterations 1
Tres = -0.503404
TsRes = -0.0422882
ExecutionTime = 0.15 s



Wall heat fluxes [W]
movingWall -0.120651 2.61834e-16 0.122874 0.0022228
left 0.384336 1.7343e-15 0.963702 1.34804
right -0.569758 8.25127e-16 -1.28582 -1.85558
bottom -0.197331 0 0.199244 0.00191293
frontAndBack 0 0 0 0
sum -0.503404 2.82126e-15 -5.40753e-08 -0.503404


Wall heat fluxes [W]
topAndBottom 0 0 0 0
left 1.84924 0 0 1.84924
right -1.89153 0 0 -1.89153
frontAndBack 0 0 0 0
sum -0.0422882 0 0 -0.0422882

Time = 57

DILUPBiCG:  Solving for Ux, Initial residual = 0.00568541, Final residual = 4.46758e-05, No Iterations 1
DILUPBiCG:  Solving for Uy, Initial residual = 0.0094842, Final residual = 8.98163e-05, No Iterations 1
DICPCG:  Solving for p_rgh, Initial residual = 0.0135107, Final residual = 8.82584e-05, No Iterations 6
time step continuity errors : sum local = 0.000474115, global = -1.21761e-16, cumulative = -5.71326e-16
DILUPBiCG:  Solving for epsilon, Initial residual = 0.00472153, Final residual = 3.3493e-06, No Iterations 2
DILUPBiCG:  Solving for k, Initial residual = 0.014787, Final residual = 6.7641e-05, No Iterations 2
DICPCG:  Solving for G, Initial residual = 0.00326572, Final residual = 0.000272975, No Iterations 12
Before T+T solve
BiCG:  Solving for T+T, Initial residual = 0.00106223, Final residual = 0.000105279, No Iterations 1
Tres = -0.491871
TsRes = -0.0426166
ExecutionTime = 0.15 s



Wall heat fluxes [W]
movingWall -0.119604 -2.3787e-15 0.122472 0.0028685
left 0.388988 1.59556e-15 0.967721 1.35671
right -0.564445 -4.88061e-15 -1.28966 -1.8541
bottom -0.196812 0 0.199463 0.00265099
frontAndBack 0 0 0 0
sum -0.491871 -5.66376e-15 4.33518e-08 -0.491871


Wall heat fluxes [W]
topAndBottom 0 0 0 0
left 1.84803 0 0 1.84803
right -1.89064 0 0 -1.89064
frontAndBack 0 0 0 0
sum -0.0426166 0 0 -0.0426166

Time = 58

DILUPBiCG:  Solving for Ux, Initial residual = 0.00628429, Final residual = 4.8867e-05, No Iterations 1
DILUPBiCG:  Solving for Uy, Initial residual = 0.00822307, Final residual = 1.2607e-06, No Iterations 2
DICPCG:  Solving for p_rgh, Initial residual = 0.013424, Final residual = 5.01133e-05, No Iterations 11
time step continuity errors : sum local = 0.000174657, global = -1.09055e-16, cumulative = -6.80382e-16
DILUPBiCG:  Solving for epsilon, Initial residual = 0.00433224, Final residual = 3.14624e-06, No Iterations 2
DILUPBiCG:  Solving for k, Initial residual = 0.0136655, Final residual = 7.15928e-05, No Iterations 2
DICPCG:  Solving for G, Initial residual = 0.00259949, Final residual = 0.000170411, No Iterations 11
Before T+T solve
BiCG:  Solving for T+T, Initial residual = 0.00105117, Final residual = 8.33653e-05, No Iterations 3
Tres = -0.480733
TsRes = -0.0362633
ExecutionTime = 0.15 s



Wall heat fluxes [W]
movingWall -0.117587 -1.60618e-15 0.119829 0.00224184
left 0.393586 -1.66493e-15 0.970805 1.36439
right -0.561294 3.94995e-16 -1.28789 -1.84918
bottom -0.195438 0 0.197253 0.00181448
frontAndBack 0 0 0 0
sum -0.480733 -2.87611e-15 3.12674e-08 -0.480733


Wall heat fluxes [W]
topAndBottom 0 0 0 0
left 1.84569 0 0 1.84569
right -1.88195 0 0 -1.88195
frontAndBack 0 0 0 0
sum -0.0362633 0 0 -0.0362633

Time = 59

DILUPBiCG:  Solving for Ux, Initial residual = 0.00578569, Final residual = 4.3757e-05, No Iterations 1
DILUPBiCG:  Solving for Uy, Initial residual = 0.00852181, Final residual = 8.11897e-05, No Iterations 1
DICPCG:  Solving for p_rgh, Initial residual = 0.0128434, Final residual = 0.00012487, No Iterations 5
[...]
DICPCG:  Solving for G, Initial residual = 2.75958e-12, Final residual = 2.68711e-13, No Iterations 11
Before T+T solve
BiCG:  Solving for T+T, Initial residual = 1.07084e-12, Final residual = 1.00969e-13, No Iterations 1
Tres = -4.01112e-10
TsRes = -3.17753e-11
ExecutionTime = 2.25 s



Wall heat fluxes [W]
movingWall -0.0286658 1.55489e-15 0.0286658 2.39972e-12
left 0.590567 7.90841e-15 1.13057 1.72114
right -0.422774 4.96089e-15 -1.29836 -1.72114
bottom -0.139127 0 0.139127 1.9299e-12
frontAndBack 0 0 0 0
sum -4.01127e-10 1.44242e-14 2.47996e-13 -4.00865e-10


Wall heat fluxes [W]
topAndBottom 0 0 0 0
left 1.72114 0 0 1.72114
right -1.72114 0 0 -1.72114
frontAndBack 0 0 0 0
sum -3.1775e-11 0 0 -3.1775e-11

Time = 987

DILUPBiCG:  Solving for Ux, Initial residual = 4.50284e-12, Final residual = 1.25591e-15, No Iterations 2
DILUPBiCG:  Solving for Uy, Initial residual = 6.62497e-12, Final residual = 1.02365e-15, No Iterations 2
DICPCG:  Solving for p_rgh, Initial residual = 8.739e-12, Final residual = 5.17632e-14, No Iterations 10
time step continuity errors : sum local = 2.02077e-13, global = 7.04096e-17, cumulative = 4.70518e-15
DILUPBiCG:  Solving for epsilon, Initial residual = 4.1863e-12, Final residual = 2.08028e-15, No Iterations 2
DILUPBiCG:  Solving for k, Initial residual = 8.23266e-12, Final residual = 1.66761e-14, No Iterations 2
DICPCG:  Solving for G, Initial residual = 3.42896e-12, Final residual = 2.57112e-13, No Iterations 12
Before T+T solve
BiCG:  Solving for T+T, Initial residual = 1.0047e-12, Final residual = 9.99426e-14, No Iterations 1
Tres = -3.92211e-10
TsRes = -3.21757e-11
ExecutionTime = 2.26 s



Wall heat fluxes [W]
movingWall -0.0286658 3.54487e-16 0.0286658 2.72142e-12
left 0.590567 -6.9372e-16 1.13057 1.72114
right -0.422774 4.74463e-15 -1.29836 -1.72114
bottom -0.139127 0 0.139127 2.30052e-12
frontAndBack 0 0 0 0
sum -3.92214e-10 4.4054e-15 7.87426e-13 -3.91422e-10


Wall heat fluxes [W]
topAndBottom 0 0 0 0
left 1.72114 0 0 1.72114
right -1.72114 0 0 -1.72114
frontAndBack 0 0 0 0
sum -3.2176e-11 0 0 -3.2176e-11

Time = 988

DILUPBiCG:  Solving for Ux, Initial residual = 4.85589e-12, Final residual = 4.64537e-14, No Iterations 1
DILUPBiCG:  Solving for Uy, Initial residual = 5.96794e-12, Final residual = 1.11895e-15, No Iterations 2
DICPCG:  Solving for p_rgh, Initial residual = 8.49978e-12, Final residual = 6.07205e-14, No Iterations 6
time step continuity errors : sum local = 3.26165e-13, global = -2.08317e-16, cumulative = 4.49687e-15
DILUPBiCG:  Solving for epsilon, Initial residual = 4.0904e-12, Final residual = 2.04324e-15, No Iterations 2
DILUPBiCG:  Solving for k, Initial residual = 8.04669e-12, Final residual = 1.63015e-14, No Iterations 2
DICPCG:  Solving for G, Initial residual = 2.86286e-12, Final residual = 8.49814e-14, No Iterations 11
Before T+T solve
BiCG:  Solving for T+T, Initial residual = 9.90499e-13, Final residual = 8.63874e-14, No Iterations 3
Tres = -3.834e-10
TsRes = -2.64957e-11
ExecutionTime = 2.26 s



Wall heat fluxes [W]
movingWall -0.0286658 1.84788e-15 0.0286658 2.07437e-12
left 0.590567 -9.01836e-15 1.13057 1.72114
right -0.422774 1.44301e-15 -1.29836 -1.72114
bottom -0.139127 0 0.139127 1.57283e-12
frontAndBack 0 0 0 0
sum -3.83393e-10 -5.72747e-15 4.70179e-14 -3.83351e-10


Wall heat fluxes [W]
topAndBottom 0 0 0 0
left 1.72114 0 0 1.72114
right -1.72114 0 0 -1.72114
frontAndBack 0 0 0 0
sum -2.64959e-11 0 0 -2.64959e-11

Time = 989

DILUPBiCG:  Solving for Ux, Initial residual = 4.56612e-12, Final residual = 1.14849e-15, No Iterations 2
DILUPBiCG:  Solving for Uy, Initial residual = 6.58877e-12, Final residual = 8.72711e-16, No Iterations 2
DICPCG:  Solving for p_rgh, Initial residual = 8.48014e-12, Final residual = 5.40437e-14, No Iterations 10
time step continuity errors : sum local = 2.12629e-13, global = -7.46448e-17, cumulative = 4.42222e-15
DILUPBiCG:  Solving for epsilon, Initial residual = 3.98365e-12, Final residual = 1.99217e-15, No Iterations 2
DILUPBiCG:  Solving for k, Initial residual = 7.8294e-12, Final residual = 1.59177e-14, No Iterations 2
DICPCG:  Solving for G, Initial residual = 2.67319e-12, Final residual = 2.21301e-13, No Iterations 11
Before T+T solve
BiCG:  Solving for T+T, Initial residual = 9.99069e-13, Final residual = 9.41822e-14, No Iterations 1
Tres = -3.7476e-10
TsRes = -3.00633e-11
ExecutionTime = 2.26 s



Wall heat fluxes [W]
movingWall -0.0286658 1.24441e-15 0.0286658 2.24766e-12
left 0.590567 -1.80367e-15 1.13057 1.72114
right -0.422774 -3.31951e-15 -1.29836 -1.72114
bottom -0.139127 0 0.139127 1.8332e-12
frontAndBack 0 0 0 0
sum -3.74754e-10 -3.87877e-15 -2.32869e-14 -3.74781e-10


Wall heat fluxes [W]
topAndBottom 0 0 0 0
left 1.72114 0 0 1.72114
right -1.72114 0 0 -1.72114
frontAndBack 0 0 0 0
sum -3.00633e-11 0 0 -3.00633e-11

Time = 990

DILUPBiCG:  Solving for Ux, Initial residual = 4.21137e-12, Final residual = 1.12562e-15, No Iterations 2
DILUPBiCG:  Solving for Uy, Initial residual = 6.14439e-12, Final residual = 9.34556e-16, No Iterations 2
DICPCG:  Solving for p_rgh, Initial residual = 8.17788e-12, Final residual = 6.19493e-14, No Iterations 6
time step continuity errors : sum local = 3.35616e-13, global = -6.23694e-17, cumulative = 4.35985e-15
DILUPBiCG:  Solving for epsilon, Initial residual = 3.89629e-12, Final residual = 1.94178e-15, No Iterations 2
DILUPBiCG:  Solving for k, Initial residual = 7.6646e-12, Final residual = 1.55636e-14, No Iterations 2
DICPCG:  Solving for G, Initial residual = 3.31729e-12, Final residual = 2.44083e-13, No Iterations 12
Before T+T solve
BiCG:  Solving for T+T, Initial residual = 9.40801e-13, Final residual = 8.91178e-14, No Iterations 2
Tres = -3.66544e-10
TsRes = -2.8112e-11
ExecutionTime = 2.26 s



Wall heat fluxes [W]
movingWall -0.0286658 1.20633e-15 0.0286658 2.48601e-12
left 0.590567 -3.32986e-15 1.13057 1.72114
right -0.422774 -1.643e-15 -1.29836 -1.72114
bottom -0.139127 0 0.139127 2.11883e-12
frontAndBack 0 0 0 0
sum -3.66539e-10 -3.76653e-15 -1.29619e-14 -3.66555e-10


Wall heat fluxes [W]
topAndBottom 0 0 0 0
left 1.72114 0 0 1.72114
right -1.72114 0 0 -1.72114
frontAndBack 0 0 0 0
sum -2.81122e-11 0 0 -2.81122e-11

Time = 991

DILUPBiCG:  Solving for Ux, Initial residual = 4.5581e-12, Final residual = 4.40551e-14, No Iterations 1
DILUPBiCG:  Solving for Uy, Initial residual = 5.62243e-12, Final residual = 1.04162e-15, No Iterations 2
DICPCG:  Solving for p_rgh, Initial residual = 8.38902e-12, Final residual = 5.33685e-14, No Iterations 10
time step continuity errors : sum local = 2.07266e-13, global = 1.53525e-17, cumulative = 4.3752e-15
DILUPBiCG:  Solving for epsilon, Initial residual = 3.81299e-12, Final residual = 1.90059e-15, No Iterations 2
DILUPBiCG:  Solving for k, Initial residual = 7.47323e-12, Final residual = 1.52159e-14, No Iterations 2
DICPCG:  Solving for G, Initial residual = 2.7123e-12, Final residual = 2.47385e-13, No Iterations 10
Before T+T solve
BiCG:  Solving for T+T, Initial residual = 9.45507e-13, Final residual = 9.33727e-14, No Iterations 3
Tres = -3.58709e-10
TsRes = -2.4173e-11
ExecutionTime = 2.26 s



Wall heat fluxes [W]
movingWall -0.0286658 4.43977e-16 0.0286658 2.10117e-12
left 0.590567 4.43981e-15 1.13057 1.72114
right -0.422774 -5.57569e-15 -1.29836 -1.72114
bottom -0.139127 0 0.139127 1.62481e-12
frontAndBack 0 0 0 0
sum -3.58706e-10 -6.91907e-16 5.01599e-13 -3.58205e-10


Wall heat fluxes [W]
topAndBottom 0 0 0 0
left 1.72114 0 0 1.72114
right -1.72114 0 0 -1.72114
frontAndBack 0 0 0 0
sum -2.41731e-11 0 0 -2.41731e-11

Time = 992

DILUPBiCG:  Solving for Ux, Initial residual = 4.20786e-12, Final residual = 1.02947e-15, No Iterations 2
DILUPBiCG:  Solving for Uy, Initial residual = 5.97268e-12, Final residual = 8.50482e-16, No Iterations 2
DICPCG:  Solving for p_rgh, Initial residual = 7.91718e-12, Final residual = 7.23135e-14, No Iterations 5
time step continuity errors : sum local = 3.75438e-13, global = 2.24001e-17, cumulative = 4.3976e-15
DILUPBiCG:  Solving for epsilon, Initial residual = 3.72087e-12, Final residual = 1.85555e-15, No Iterations 2
DILUPBiCG:  Solving for k, Initial residual = 7.30957e-12, Final residual = 1.49025e-14, No Iterations 2
DICPCG:  Solving for G, Initial residual = 2.80776e-12, Final residual = 2.04387e-13, No Iterations 12
Before T+T solve
BiCG:  Solving for T+T, Initial residual = 9.41956e-13, Final residual = 8.56328e-14, No Iterations 1
Tres = -3.50566e-10
TsRes = -2.68617e-11
ExecutionTime = 2.27 s



Wall heat fluxes [W]
movingWall -0.0286658 -3.25313e-16 0.0286658 2.18833e-12
left 0.590567 -2.77488e-16 1.13057 1.72114
right -0.422774 2.05927e-15 -1.29836 -1.72114
bottom -0.139127 0 0.139127 1.78965e-12
frontAndBack 0 0 0 0
sum -3.50566e-10 1.45647e-15 2.52576e-13 -3.50312e-10


Wall heat fluxes [W]
topAndBottom 0 0 0 0
left 1.72114 0 0 1.72114
right -1.72114 0 0 -1.72114
frontAndBack 0 0 0 0
sum -2.68621e-11 0 0 -2.68621e-11

Time = 993

DILUPBiCG:  Solving for Ux, Initial residual = 3.99914e-12, Final residual = 1.0846e-15, No Iterations 2
DILUPBiCG:  Solving for Uy, Initial residual = 5.79108e-12, Final residual = 1.0251e-15, No Iterations 2
DICPCG:  Solving for p_rgh, Initial residual = 7.57754e-12, Final residual = 4.47361e-14, No Iterations 10
time step continuity errors : sum local = 1.73847e-13, global = 1.8413e-16, cumulative = 4.58173e-15
DILUPBiCG:  Solving for epsilon, Initial residual = 3.66799e-12, Final residual = 1.80771e-15, No Iterations 2
DILUPBiCG:  Solving for k, Initial residual = 7.21146e-12, Final residual = 1.45327e-14, No Iterations 2
DICPCG:  Solving for G, Initial residual = 3.09016e-12, Final residual = 2.03625e-13, No Iterations 12
Before T+T solve
BiCG:  Solving for T+T, Initial residual = 8.77207e-13, Final residual = 8.66718e-14, No Iterations 1
Tres = -3.42502e-10
TsRes = -2.75064e-11
ExecutionTime = 2.27 s



Wall heat fluxes [W]
movingWall -0.0286658 -3.58715e-16 0.0286658 2.23578e-12
left 0.590567 4.57855e-15 1.13057 1.72114
right -0.422774 2.07397e-15 -1.29836 -1.72114
bottom -0.139127 0 0.139127 1.83348e-12
frontAndBack 0 0 0 0
sum -3.42508e-10 6.2938e-15 6.90836e-14 -3.42432e-10


Wall heat fluxes [W]
topAndBottom 0 0 0 0
left 1.72114 0 0 1.72114
right -1.72114 0 0 -1.72114
frontAndBack 0 0 0 0
sum -2.75062e-11 0 0 -2.75062e-11

Time = 994

DILUPBiCG:  Solving for Ux, Initial residual = 4.2101e-12, Final residual = 4.04603e-14, No Iterations 1
DILUPBiCG:  Solving for Uy, Initial residual = 5.49626e-12, Final residual = 9.43846e-16, No Iterations 2
DICPCG:  Solving for p_rgh, Initial residual = 7.42025e-12, Final residual = 5.49116e-14, No Iterations 6
time step continuity errors : sum local = 2.92652e-13, global = 7.99718e-17, cumulative = 4.66171e-15
DILUPBiCG:  Solving for epsilon, Initial residual = 3.58529e-12, Final residual = 1.78042e-15, No Iterations 2
DILUPBiCG:  Solving for k, Initial residual = 7.05817e-12, Final residual = 1.42393e-14, No Iterations 2
DICPCG:  Solving for G, Initial residual = 2.50391e-12, Final residual = 7.27476e-14, No Iterations 11
Before T+T solve
BiCG:  Solving for T+T, Initial residual = 8.64105e-13, Final residual = 7.56744e-14, No Iterations 3
Tres = -3.3492e-10
TsRes = -2.25166e-11
ExecutionTime = 2.27 s



Wall heat fluxes [W]
movingWall -0.0286658 3.13918e-16 0.0286658 1.89158e-12
left 0.590567 1.10995e-15 1.13057 1.72114
right -0.422774 2.67471e-15 -1.29836 -1.72114
bottom -0.139127 0 0.139127 1.47138e-12
frontAndBack 0 0 0 0
sum -3.34923e-10 4.09858e-15 -1.08469e-13 -3.35027e-10


Wall heat fluxes [W]
topAndBottom 0 0 0 0
left 1.72114 0 0 1.72114
right -1.72114 0 0 -1.72114
frontAndBack 0 0 0 0
sum -2.25167e-11 0 0 -2.25167e-11

Time = 995

DILUPBiCG:  Solving for Ux, Initial residual = 4.00752e-12, Final residual = 9.99448e-16, No Iterations 2
DILUPBiCG:  Solving for Uy, Initial residual = 5.65105e-12, Final residual = 7.88034e-16, No Iterations 2
DICPCG:  Solving for p_rgh, Initial residual = 7.32372e-12, Final residual = 4.53235e-14, No Iterations 10
time step continuity errors : sum local = 1.77745e-13, global = -8.56297e-17, cumulative = 4.57608e-15
DILUPBiCG:  Solving for epsilon, Initial residual = 3.48876e-12, Final residual = 1.74255e-15, No Iterations 2
DILUPBiCG:  Solving for k, Initial residual = 6.86172e-12, Final residual = 1.39317e-14, No Iterations 2
DICPCG:  Solving for G, Initial residual = 2.36265e-12, Final residual = 2.30251e-13, No Iterations 11
Before T+T solve
BiCG:  Solving for T+T, Initial residual = 8.72774e-13, Final residual = 8.1578e-14, No Iterations 1
Tres = -3.27424e-10
TsRes = -2.58446e-11
ExecutionTime = 2.27 s



Wall heat fluxes [W]
movingWall -0.0286658 1.69093e-15 0.0286658 1.98911e-12
left 0.590567 -2.91362e-15 1.13057 1.72114
right -0.422774 -2.67594e-15 -1.29836 -1.72114
bottom -0.139127 0 0.139127 1.61368e-12
frontAndBack 0 0 0 0
sum -3.27421e-10 -3.89864e-15 7.92422e-14 -3.27345e-10


Wall heat fluxes [W]
topAndBottom 0 0 0 0
left 1.72114 0 0 1.72114
right -1.72114 0 0 -1.72114
frontAndBack 0 0 0 0
sum -2.58449e-11 0 0 -2.58449e-11

Time = 996

DILUPBiCG:  Solving for Ux, Initial residual = 3.68154e-12, Final residual = 9.85889e-16, No Iterations 2
DILUPBiCG:  Solving for Uy, Initial residual = 5.3379e-12, Final residual = 8.22792e-16, No Iterations 2
DICPCG:  Solving for p_rgh, Initial residual = 7.13094e-12, Final residual = 5.32363e-14, No Iterations 6
time step continuity errors : sum local = 2.88618e-13, global = 6.80273e-17, cumulative = 4.6441e-15
DILUPBiCG:  Solving for epsilon, Initial residual = 3.40814e-12, Final residual = 1.70134e-15, No Iterations 2
DILUPBiCG:  Solving for k, Initial residual = 6.70755e-12, Final residual = 1.36297e-14, No Iterations 2
DICPCG:  Solving for G, Initial residual = 3.0169e-12, Final residual = 1.98829e-13, No Iterations 12
Before T+T solve
BiCG:  Solving for T+T, Initial residual = 8.21472e-13, Final residual = 8.19085e-14, No Iterations 1
Tres = -3.20189e-10
TsRes = -2.62911e-11
ExecutionTime = 2.27 s



Wall heat fluxes [W]
movingWall -0.0286658 1.5679e-15 0.0286658 2.24951e-12
left 0.590567 1.10995e-15 1.13057 1.72114
right -0.422774 2.07099e-16 -1.29836 -1.72114
bottom -0.139127 0 0.139127 1.90339e-12
frontAndBack 0 0 0 0
sum -3.20192e-10 2.88495e-15 7.13957e-13 -3.19475e-10


Wall heat fluxes [W]
topAndBottom 0 0 0 0
left 1.72114 0 0 1.72114
right -1.72114 0 0 -1.72114
frontAndBack 0 0 0 0
sum -2.62912e-11 0 0 -2.62912e-11

Time = 997

DILUPBiCG:  Solving for Ux, Initial residual = 3.94861e-12, Final residual = 3.77887e-14, No Iterations 1
DILUPBiCG:  Solving for Uy, Initial residual = 4.85102e-12, Final residual = 1.14989e-15, No Iterations 2
DICPCG:  Solving for p_rgh, Initial residual = 6.95006e-12, Final residual = 4.20037e-14, No Iterations 10
time step continuity errors : sum local = 1.63702e-13, global = -9.39677e-18, cumulative = 4.63471e-15
DILUPBiCG:  Solving for epsilon, Initial residual = 3.34262e-12, Final residual = 1.66511e-15, No Iterations 2
DILUPBiCG:  Solving for k, Initial residual = 6.56492e-12, Final residual = 1.32882e-14, No Iterations 2
DICPCG:  Solving for G, Initial residual = 2.60068e-12, Final residual = 8.50669e-14, No Iterations 11
Before T+T solve
BiCG:  Solving for T+T, Initial residual = 8.07933e-13, Final residual = 7.06114e-14, No Iterations 3
Tres = -3.13007e-10
TsRes = -2.14441e-11
ExecutionTime = 2.28 s



Wall heat fluxes [W]
movingWall -0.0286658 -3.71356e-16 0.0286658 1.67735e-12
left 0.590567 -2.77488e-15 1.13057 1.72114
right -0.422774 3.09315e-15 -1.29836 -1.72114
bottom -0.139127 0 0.139127 1.27329e-12
frontAndBack 0 0 0 0
sum -3.13007e-10 -5.30867e-17 -2.15383e-14 -3.13028e-10


Wall heat fluxes [W]
topAndBottom 0 0 0 0
left 1.72114 0 0 1.72114
right -1.72114 0 0 -1.72114
frontAndBack 0 0 0 0
sum -2.1444e-11 0 0 -2.1444e-11

Time = 998

DILUPBiCG:  Solving for Ux, Initial residual = 3.73528e-12, Final residual = 9.01811e-16, No Iterations 2
DILUPBiCG:  Solving for Uy, Initial residual = 5.39627e-12, Final residual = 6.93771e-16, No Iterations 2
DICPCG:  Solving for p_rgh, Initial residual = 6.90947e-12, Final residual = 6.3996e-14, No Iterations 5
time step continuity errors : sum local = 3.23182e-13, global = 8.20232e-17, cumulative = 4.71673e-15
DILUPBiCG:  Solving for epsilon, Initial residual = 3.24352e-12, Final residual = 1.62895e-15, No Iterations 2
DILUPBiCG:  Solving for k, Initial residual = 6.37568e-12, Final residual = 1.30168e-14, No Iterations 2
DICPCG:  Solving for G, Initial residual = 2.31142e-12, Final residual = 1.24162e-13, No Iterations 11
Before T+T solve
BiCG:  Solving for T+T, Initial residual = 8.16805e-13, Final residual = 7.70393e-14, No Iterations 1
Tres = -3.05982e-10
TsRes = -2.44178e-11
ExecutionTime = 2.28 s



Wall heat fluxes [W]
movingWall -0.0286658 2.10182e-17 0.0286658 1.85395e-12
left 0.590567 1.38744e-15 1.13057 1.72114
right -0.422774 2.68318e-15 -1.29836 -1.72114
bottom -0.139127 0 0.139127 1.51915e-12
frontAndBack 0 0 0 0
sum -3.05986e-10 4.09164e-15 1.23623e-13 -3.05859e-10


Wall heat fluxes [W]
topAndBottom 0 0 0 0
left 1.72114 0 0 1.72114
right -1.72114 0 0 -1.72114
frontAndBack 0 0 0 0
sum -2.4418e-11 0 0 -2.4418e-11

Time = 999

DILUPBiCG:  Solving for Ux, Initial residual = 3.42227e-12, Final residual = 9.59677e-16, No Iterations 2
DILUPBiCG:  Solving for Uy, Initial residual = 5.00427e-12, Final residual = 7.96084e-16, No Iterations 2
DICPCG:  Solving for p_rgh, Initial residual = 6.66956e-12, Final residual = 3.91569e-14, No Iterations 10
time step continuity errors : sum local = 1.53563e-13, global = 4.33443e-18, cumulative = 4.72106e-15
DILUPBiCG:  Solving for epsilon, Initial residual = 3.1855e-12, Final residual = 1.58112e-15, No Iterations 2
DILUPBiCG:  Solving for k, Initial residual = 6.25402e-12, Final residual = 1.26839e-14, No Iterations 2
DICPCG:  Solving for G, Initial residual = 2.80238e-12, Final residual = 2.01628e-13, No Iterations 12
Before T+T solve
BiCG:  Solving for T+T, Initial residual = 7.6762e-13, Final residual = 7.3062e-14, No Iterations 2
Tres = -2.99458e-10
TsRes = -2.29616e-11
ExecutionTime = 2.28 s



Wall heat fluxes [W]
movingWall -0.0286658 -1.54309e-16 0.0286658 2.08406e-12
left 0.590567 -1.10995e-15 1.13057 1.72114
right -0.422774 -2.11763e-16 -1.29836 -1.72114
bottom -0.139127 0 0.139127 1.79382e-12
frontAndBack 0 0 0 0
sum -2.99456e-10 -1.47602e-15 5.89417e-13 -2.98868e-10


Wall heat fluxes [W]
topAndBottom 0 0 0 0
left 1.72114 0 0 1.72114
right -1.72114 0 0 -1.72114
frontAndBack 0 0 0 0
sum -2.29616e-11 0 0 -2.29616e-11

Time = 1000

DILUPBiCG:  Solving for Ux, Initial residual = 3.72926e-12, Final residual = 3.60767e-14, No Iterations 1
DILUPBiCG:  Solving for Uy, Initial residual = 4.50523e-12, Final residual = 8.04481e-16, No Iterations 2
DICPCG:  Solving for p_rgh, Initial residual = 6.82085e-12, Final residual = 6.19837e-14, No Iterations 5
time step continuity errors : sum local = 3.13168e-13, global = 1.16103e-16, cumulative = 4.83717e-15
DILUPBiCG:  Solving for epsilon, Initial residual = 3.10568e-12, Final residual = 1.55183e-15, No Iterations 2
DILUPBiCG:  Solving for k, Initial residual = 6.08768e-12, Final residual = 1.24341e-14, No Iterations 2
DICPCG:  Solving for G, Initial residual = 2.45904e-12, Final residual = 2.36465e-13, No Iterations 10
Before T+T solve
BiCG:  Solving for T+T, Initial residual = 7.72923e-13, Final residual = 7.62171e-14, No Iterations 3
Tres = -2.92908e-10
TsRes = -1.98447e-11
ExecutionTime = 2.29 s



Wall heat fluxes [W]
movingWall -0.0286658 1.0683e-15 0.0286658 1.66875e-12
left 0.590567 2.91362e-15 1.13057 1.72114
right -0.422774 1.02887e-15 -1.29836 -1.72114
bottom -0.139127 0 0.139127 1.27448e-12
frontAndBack 0 0 0 0
sum -2.92911e-10 5.01079e-15 5.49144e-13 -2.92357e-10


Wall heat fluxes [W]
topAndBottom 0 0 0 0
left 1.72114 0 0 1.72114
right -1.72114 0 0 -1.72114
frontAndBack 0 0 0 0
sum -1.98446e-11 0 0 -1.98446e-11

End

