/*---------------------------------------------------------------------------*\
| =========                 |                                                 |
| \\      /  F ield         | OpenFOAM Extend Project: Open source CFD        |
|  \\    /   O peration     | Version:  1.6-ext                               |
|   \\  /    A nd           | Web:      www.extend-project.de                 |
|    \\/     M anipulation  |                                                 |
\*---------------------------------------------------------------------------*/
Build  : 1.6-ext-daa8fb2a98e6
Exec   : chipAirCoolingSimpleFoam
Date   : Nov 29 2011
Time   : 22:11:57
Host   : ubuntu
PID    : 712
Case   : /home/user/ChipAirCoolingClient/run/twoCavities
nProcs : 1
SigFpe : Enabling floating point exception trapping (FOAM_SIGFPE).

// * * * * * * * * * * * * * * * * * * * * * * * * * * * * * * * * * * * * * //
Create time

Create mesh for time = 0


Reading g
Reading transportProperties

Calculating field g.h

Reading field p_rgh

Reading field U

Reading field T

Reading/calculating face flux field phi

Selecting incompressible transport model Newtonian
Selecting RAS turbulence model kEpsilon
kEpsilonCoeffs
{
    Cmu             0.09;
    C1              1.44;
    C2              1.92;
    alphaEps        0.76923;
    sigmaEps        1.3;
}

Reading field kappaEff

Creating radiation model

Selecting radiationModel P1
Selecting absorptionEmissionModel constantAbsorptionEmission
Selecting scatterModel constantScatter
Reading field Tsolid

Reading solid thermal properties
Selecting thermal model multiMaterialZones
Selecting thermal model constant
Selecting thermal model constant
Selecting thermal gap model constant
Reading solid diffusivity k


Starting time loop

--> FOAM Warning : 
    From function dlLibraryTable::open(const dictionary& dict, const word& libsEntry, const TablePtr tablePtr)
    in file lnInclude/dlLibraryTableTemplates.C at line 68
    library "libairbusMaterialModels.so" did not introduce any new entries

Time = 1

DILUPBiCG:  Solving for Ux, Initial residual = 1, Final residual = 0.00897023, No Iterations 1
DILUPBiCG:  Solving for Uy, Initial residual = 1, Final residual = 0.00987563, No Iterations 1
DICPCG:  Solving for p_rgh, Initial residual = 1, Final residual = 0.00291726, No Iterations 6
time step continuity errors : sum local = 0.00216844, global = -4.67853e-17, cumulative = -4.67853e-17
DILUPBiCG:  Solving for epsilon, Initial residual = 0.0778517, Final residual = 0.000142376, No Iterations 2
DILUPBiCG:  Solving for k, Initial residual = 1, Final residual = 0.00252941, No Iterations 2
DICPCG:  Solving for G, Initial residual = 1, Final residual = 0.0866965, No Iterations 12
Before T+T solve
BiCG:  Solving for T+T, Initial residual = 0.254422, Final residual = 0.0236766, No Iterations 3
Tres = -3.08957
TsRes = -18.3282
ExecutionTime = 0.04 s



Wall heat fluxes [W]
movingWall -0.78219 -1.95156e-15 -0.416973 -1.19916
left 0.0151623 0 0.139421 0.154583
right -0.0929342 0 0.139478 0.0465434
bottom -0.104252 0 0.138084 0.0338315
movingWall2 -0.301062 0 0.390389 0.0893276
left2 -0.172187 0 0.386493 0.214306
right2 -1.63153 -1.80088e-15 -1.1671 -2.79863
bottom2 -0.285704 0 0.390237 0.104532
frontAndBack 0 0 0 0
sum -3.3547 -3.75244e-15 2.42593e-05 -3.35467


Wall heat fluxes [W]
topAndBottom 0 0 0 0
left 0 0 0 0
right -18.3282 0 0 -18.3282
frontAndBack 0 0 0 0
sum -18.3282 0 0 -18.3282

Time = 2

DILUPBiCG:  Solving for Ux, Initial residual = 0.788294, Final residual = 0.0070461, No Iterations 1
DILUPBiCG:  Solving for Uy, Initial residual = 0.781586, Final residual = 0.00773586, No Iterations 1
DICPCG:  Solving for p_rgh, Initial residual = 0.667671, Final residual = 0.00541107, No Iterations 5
time step continuity errors : sum local = 0.0219764, global = -1.06806e-16, cumulative = -1.53591e-16
DILUPBiCG:  Solving for epsilon, Initial residual = 0.0209272, Final residual = 2.89295e-05, No Iterations 2
DILUPBiCG:  Solving for k, Initial residual = 0.659268, Final residual = 0.000852012, No Iterations 2
DICPCG:  Solving for G, Initial residual = 0.26621, Final residual = 0.0141409, No Iterations 12
Before T+T solve
BiCG:  Solving for T+T, Initial residual = 0.0277532, Final residual = 0.00160446, No Iterations 5
Tres = -2.22838
TsRes = -6.8944
ExecutionTime = 0.05 s



Wall heat fluxes [W]
movingWall -0.45982 2.60209e-15 -0.351752 -0.811572
left 0.0153202 2.7095e-16 0.204351 0.219671
right -0.0710282 -5.2022e-16 0.0140888 -0.0569394
bottom -0.102943 0 0.133311 0.0303681
movingWall2 -0.327851 6.16171e-16 0.390343 0.062492
left2 -0.147579 3.08897e-15 0.228122 0.0805428
right2 -0.902348 -1.51653e-14 -0.969221 -1.87157
bottom2 -0.268557 0 0.350757 0.0822002
frontAndBack 0 0 0 0
sum -2.26481 -9.10732e-15 -1.29406e-07 -2.26481


Wall heat fluxes [W]
topAndBottom 0 0 0 0
left 0 0 0 0
right -6.8944 0 0 -6.8944
frontAndBack 0 0 0 0
sum -6.8944 0 0 -6.8944

Time = 3

DILUPBiCG:  Solving for Ux, Initial residual = 0.243593, Final residual = 1.69789e-05, No Iterations 2
DILUPBiCG:  Solving for Uy, Initial residual = 0.324264, Final residual = 0.00245926, No Iterations 1
DICPCG:  Solving for p_rgh, Initial residual = 0.478291, Final residual = 0.00338182, No Iterations 6
time step continuity errors : sum local = 0.00971963, global = 1.87737e-16, cumulative = 3.4146e-17
DILUPBiCG:  Solving for epsilon, Initial residual = 0.0654427, Final residual = 4.31125e-05, No Iterations 2
DILUPBiCG:  Solving for k, Initial residual = 0.211148, Final residual = 0.000261887, No Iterations 2
DICPCG:  Solving for G, Initial residual = 0.0950771, Final residual = 0.0063007, No Iterations 12
Before T+T solve
BiCG:  Solving for T+T, Initial residual = 0.00905918, Final residual = 0.000873608, No Iterations 5
Tres = -2.04137
TsRes = -4.20548
ExecutionTime = 0.05 s



Wall heat fluxes [W]
movingWall -0.422344 5.20417e-15 -0.338722 -0.761067
left 0.0177514 2.70984e-18 0.217554 0.235305
right -0.08141 1.45835e-16 0.0371155 -0.0442945
bottom -0.0840362 0 0.0840535 1.72681e-05
movingWall2 -0.321464 -1.86753e-15 0.331844 0.01038
left2 -0.176373 1.2616e-15 0.315662 0.139289
right2 -0.791203 1.21322e-14 -0.89565 -1.68685
bottom2 -0.242567 0 0.24815 0.00558234
frontAndBack 0 0 0 0
sum -2.10165 1.6879e-14 6.4551e-06 -2.10164


Wall heat fluxes [W]
topAndBottom 0 0 0 0
left 0 0 0 0
right -4.20548 0 0 -4.20548
frontAndBack 0 0 0 0
sum -4.20548 0 0 -4.20548

Time = 4

DILUPBiCG:  Solving for Ux, Initial residual = 0.138929, Final residual = 9.73764e-06, No Iterations 2
DILUPBiCG:  Solving for Uy, Initial residual = 0.282755, Final residual = 0.00231473, No Iterations 1
DICPCG:  Solving for p_rgh, Initial residual = 0.228024, Final residual = 0.00227011, No Iterations 7
time step continuity errors : sum local = 0.00770142, global = 7.0939e-17, cumulative = 1.05085e-16
DILUPBiCG:  Solving for epsilon, Initial residual = 0.0922721, Final residual = 7.88609e-05, No Iterations 2
DILUPBiCG:  Solving for k, Initial residual = 0.125253, Final residual = 0.000147353, No Iterations 2
DICPCG:  Solving for G, Initial residual = 0.0421377, Final residual = 0.00372762, No Iterations 12
Before T+T solve
BiCG:  Solving for T+T, Initial residual = 0.00624227, Final residual = 0.000519741, No Iterations 4
Tres = -1.99174
TsRes = -2.83656
ExecutionTime = 0.06 s



Wall heat fluxes [W]
movingWall -0.409819 0 -0.32693 -0.736749
left 0.0200464 -6.59576e-16 0.229226 0.249272
right -0.0741034 1.04239e-15 0.00189298 -0.0722104
bottom -0.0908956 0 0.0958123 0.0049167
movingWall2 -0.33032 -2.49563e-15 0.343345 0.0130249
left2 -0.165022 -1.89044e-15 0.250774 0.0857511
right2 -0.757918 1.21322e-14 -0.863462 -1.62138
bottom2 -0.259996 0 0.269345 0.00934836
frontAndBack 0 0 0 0
sum -2.06803 8.12897e-15 2.15796e-06 -2.06803


Wall heat fluxes [W]
topAndBottom 0 0 0 0
left 0 0 0 0
right -2.83656 0 0 -2.83656
frontAndBack 0 0 0 0
sum -2.83656 0 0 -2.83656

Time = 5

DILUPBiCG:  Solving for Ux, Initial residual = 0.0950993, Final residual = 0.00078929, No Iterations 1
DILUPBiCG:  Solving for Uy, Initial residual = 0.184617, Final residual = 0.00139985, No Iterations 1
DICPCG:  Solving for p_rgh, Initial residual = 0.125324, Final residual = 0.00069677, No Iterations 13
time step continuity errors : sum local = 0.00183094, global = -1.23581e-16, cumulative = -1.84958e-17
DILUPBiCG:  Solving for epsilon, Initial residual = 0.0946952, Final residual = 9.30229e-05, No Iterations 2
DILUPBiCG:  Solving for k, Initial residual = 0.0945205, Final residual = 0.000107766, No Iterations 2
DICPCG:  Solving for G, Initial residual = 0.0165799, Final residual = 0.00110575, No Iterations 12
Before T+T solve
BiCG:  Solving for T+T, Initial residual = 0.00485043, Final residual = 0.00020937, No Iterations 4
Tres = -1.93824
TsRes = -2.16898
ExecutionTime = 0.06 s



Wall heat fluxes [W]
movingWall -0.403829 -7.80626e-15 -0.324124 -0.727953
left 0.0221429 -5.26794e-16 0.232051 0.254194
right -0.0730006 -1.27758e-15 0.00327138 -0.0697293
bottom -0.0891818 0 0.0888016 -0.000380243
movingWall2 -0.323098 -6.0553e-16 0.326683 0.00358527
left2 -0.167877 -1.43067e-15 0.267095 0.0992182
right2 -0.744226 3.03306e-15 -0.853879 -1.59811
bottom2 -0.261758 0 0.260102 -0.00165645
frontAndBack 0 0 0 0
sum -2.04083 -8.61377e-15 5.73813e-07 -2.04083


Wall heat fluxes [W]
topAndBottom 0 0 0 0
left 0 0 0 0
right -2.16898 0 0 -2.16898
frontAndBack 0 0 0 0
sum -2.16898 0 0 -2.16898

Time = 6

DILUPBiCG:  Solving for Ux, Initial residual = 0.0722786, Final residual = 0.000522145, No Iterations 1
DILUPBiCG:  Solving for Uy, Initial residual = 0.113383, Final residual = 0.000857818, No Iterations 1
DICPCG:  Solving for p_rgh, Initial residual = 0.0844401, Final residual = 0.000589718, No Iterations 12
time step continuity errors : sum local = 0.00137778, global = 1.24259e-16, cumulative = 1.05763e-16
DILUPBiCG:  Solving for epsilon, Initial residual = 0.0801203, Final residual = 8.41822e-05, No Iterations 2
DILUPBiCG:  Solving for k, Initial residual = 0.0795274, Final residual = 0.000104903, No Iterations 2
DICPCG:  Solving for G, Initial residual = 0.0103095, Final residual = 0.000260236, No Iterations 13
Before T+T solve
BiCG:  Solving for T+T, Initial residual = 0.00418614, Final residual = 0.000273992, No Iterations 3
Tres = -1.91287
TsRes = -1.57669
ExecutionTime = 0.07 s



Wall heat fluxes [W]
movingWall -0.402752 2.60209e-15 -0.321259 -0.724011
left 0.0242909 3.03502e-17 0.234879 0.25917
right -0.0682592 -6.02713e-16 -0.00603086 -0.0742901
bottom -0.0910074 0 0.092411 0.0014036
movingWall2 -0.322454 1.87195e-15 0.325931 0.00347664
left2 -0.163482 -6.2581e-16 0.25182 0.088338
right2 -0.734229 6.82438e-15 -0.847529 -1.58176
bottom2 -0.266885 0 0.269778 0.00289262
frontAndBack 0 0 0 0
sum -2.02478 1.01002e-14 1.28819e-07 -2.02478


Wall heat fluxes [W]
topAndBottom 0 0 0 0
left 0 0 0 0
right -1.57669 0 0 -1.57669
frontAndBack 0 0 0 0
sum -1.57669 0 0 -1.57669

Time = 7

DILUPBiCG:  Solving for Ux, Initial residual = 0.0621096, Final residual = 0.000442681, No Iterations 1
DILUPBiCG:  Solving for Uy, Initial residual = 0.0803606, Final residual = 5.03548e-06, No Iterations 2
DICPCG:  Solving for p_rgh, Initial residual = 0.0785332, Final residual = 0.000615604, No Iterations 6
time step continuity errors : sum local = 0.00155787, global = -1.031e-16, cumulative = 2.66352e-18
DILUPBiCG:  Solving for epsilon, Initial residual = 0.0641874, Final residual = 6.83699e-05, No Iterations 2
DILUPBiCG:  Solving for k, Initial residual = 0.0710631, Final residual = 0.000173772, No Iterations 2
DICPCG:  Solving for G, Initial residual = 0.00473166, Final residual = 0.000373786, No Iterations 12
Before T+T solve
BiCG:  Solving for T+T, Initial residual = 0.00361006, Final residual = 0.000112648, No Iterations 3
Tres = -1.88734
TsRes = -1.1769
ExecutionTime = 0.07 s



Wall heat fluxes [W]
movingWall -0.403987 1.30104e-15 -0.319656 -0.723642
left 0.026165 -8.23792e-17 0.236474 0.262639
right -0.0657682 3.71433e-16 -0.00803341 -0.0738016
bottom -0.0903345 0 0.0912152 0.000880742
movingWall2 -0.32106 -6.05024e-16 0.322611 0.00155053
left2 -0.16273 -4.13171e-15 0.25365 0.0909192
right2 -0.727387 -4.17045e-15 -0.84389 -1.57128
bottom2 -0.265804 0 0.26763 0.00182573
frontAndBack 0 0 0 0
sum -2.01091 -7.31709e-15 8.92632e-09 -2.01091


Wall heat fluxes [W]
topAndBottom 0 0 0 0
left 0 0 0 0
right -1.1769 0 0 -1.1769
frontAndBack 0 0 0 0
sum -1.1769 0 0 -1.1769

Time = 8

DILUPBiCG:  Solving for Ux, Initial residual = 0.050706, Final residual = 0.000371816, No Iterations 1
DILUPBiCG:  Solving for Uy, Initial residual = 0.066165, Final residual = 4.85923e-06, No Iterations 2
DICPCG:  Solving for p_rgh, Initial residual = 0.0845955, Final residual = 0.000748473, No Iterations 8
time step continuity errors : sum local = 0.00190464, global = -2.13413e-17, cumulative = -1.86777e-17
DILUPBiCG:  Solving for epsilon, Initial residual = 0.0510827, Final residual = 5.19936e-05, No Iterations 2
DILUPBiCG:  Solving for k, Initial residual = 0.0657415, Final residual = 0.000285671, No Iterations 2
DICPCG:  Solving for G, Initial residual = 0.00558658, Final residual = 0.000143595, No Iterations 13
Before T+T solve
BiCG:  Solving for T+T, Initial residual = 0.00322997, Final residual = 0.000294021, No Iterations 4
Tres = -1.95019
TsRes = -0.854135
ExecutionTime = 0.07 s



Wall heat fluxes [W]
movingWall -0.404985 -1.30104e-15 -0.317583 -0.722568
left 0.0274187 3.98889e-16 0.238532 0.265951
right -0.061213 3.06758e-16 -0.0124816 -0.0736946
bottom -0.0900449 0 0.0915326 0.00148775
movingWall2 -0.322071 1.22887e-15 0.323351 0.00128073
left2 -0.160396 -9.50392e-16 0.248888 0.0884917
right2 -0.724055 -5.68698e-16 -0.840066 -1.56412
bottom2 -0.265047 0 0.267826 0.00277924
frontAndBack 0 0 0 0
sum -2.00039 -8.85618e-16 -3.57211e-08 -2.00039


Wall heat fluxes [W]
topAndBottom 0 0 0 0
left 0 0 0 0
right -0.854135 0 0 -0.854135
frontAndBack 0 0 0 0
sum -0.854135 0 0 -0.854135

Time = 9

DILUPBiCG:  Solving for Ux, Initial residual = 0.0418001, Final residual = 0.00031456, No Iterations 1
DILUPBiCG:  Solving for Uy, Initial residual = 0.0560906, Final residual = 5.15678e-06, No Iterations 2
DICPCG:  Solving for p_rgh, Initial residual = 0.0898346, Final residual = 0.000598342, No Iterations 12
time step continuity errors : sum local = 0.00111676, global = 1.82145e-16, cumulative = 1.63467e-16
DILUPBiCG:  Solving for epsilon, Initial residual = 0.0416096, Final residual = 4.43461e-05, No Iterations 2
DILUPBiCG:  Solving for k, Initial residual = 0.062, Final residual = 0.000547833, No Iterations 2
DICPCG:  Solving for G, Initial residual = 0.00451268, Final residual = 0.000442392, No Iterations 12
Before T+T solve
BiCG:  Solving for T+T, Initial residual = 0.00294048, Final residual = 0.000140524, No Iterations 3
Tres = -1.90525
TsRes = -0.636277
ExecutionTime = 0.08 s



Wall heat fluxes [W]
movingWall -0.404279 6.50521e-15 -0.315745 -0.720024
left 0.0282963 -4.76932e-17 0.240363 0.268659
right -0.0576113 -1.1297e-15 -0.0150245 -0.0726358
bottom -0.0888614 0 0.0904065 0.00154508
movingWall2 -0.322501 1.86714e-15 0.323886 0.00138491
left2 -0.15889 1.83066e-15 0.247709 0.0888187
right2 -0.720803 7.96177e-15 -0.836974 -1.55778
bottom2 -0.262889 0 0.265379 0.00249074
frontAndBack 0 0 0 0
sum -1.98754 1.69874e-14 -1.54701e-07 -1.98754


Wall heat fluxes [W]
topAndBottom 0 0 0 0
left 0 0 0 0
right -0.636277 0 0 -0.636277
frontAndBack 0 0 0 0
sum -0.636277 0 0 -0.636277

Time = 10

DILUPBiCG:  Solving for Ux, Initial residual = 0.0351462, Final residual = 1.42695e-05, No Iterations 2
DILUPBiCG:  Solving for Uy, Initial residual = 0.0502856, Final residual = 6.52429e-06, No Iterations 2
DICPCG:  Solving for p_rgh, Initial residual = 0.0872302, Final residual = 0.000863595, No Iterations 11
time step continuity errors : sum local = 0.00152132, global = -4.49325e-17, cumulative = 1.18535e-16
DILUPBiCG:  Solving for epsilon, Initial residual = 0.0347793, Final residual = 3.44576e-05, No Iterations 2
DILUPBiCG:  Solving for k, Initial residual = 0.0591683, Final residual = 2.96459e-06, No Iterations 3
DICPCG:  Solving for G, Initial residual = 0.00529796, Final residual = 0.000115528, No Iterations 13
Before T+T solve
BiCG:  Solving for T+T, Initial residual = 0.00274195, Final residual = 6.71515e-05, No Iterations 3
Tres = -1.88912
TsRes = -0.465908
ExecutionTime = 0.08 s



Wall heat fluxes [W]
movingWall -0.402158 -1.95156e-15 -0.313475 -0.715633
left 0.0290646 -8.6715e-18 0.242624 0.271688
right -0.0546771 -1.54534e-16 -0.0187461 -0.0734231
bottom -0.0879744 0 0.0895973 0.00162294
movingWall2 -0.322934 6.09434e-16 0.32459 0.00165687
left2 -0.157498 -9.58376e-16 0.245042 0.0875439
right2 -0.718853 -1.1374e-15 -0.833513 -1.55237
bottom2 -0.261164 0 0.263881 0.00271717
frontAndBack 0 0 0 0
sum -1.97619 -3.60111e-15 1.12468e-08 -1.97619


Wall heat fluxes [W]
topAndBottom 0 0 0 0
left 0 0 0 0
right -0.465908 0 0 -0.465908
frontAndBack 0 0 0 0
sum -0.465908 0 0 -0.465908

Time = 11

DILUPBiCG:  Solving for Ux, Initial residual = 0.0309802, Final residual = 5.48973e-05, No Iterations 2
DILUPBiCG:  Solving for Uy, Initial residual = 0.0451903, Final residual = 9.14488e-06, No Iterations 2
DICPCG:  Solving for p_rgh, Initial residual = 0.0827855, Final residual = 0.000801043, No Iterations 11
time step continuity errors : sum local = 0.0013436, global = -3.66937e-17, cumulative = 8.18412e-17
DILUPBiCG:  Solving for epsilon, Initial residual = 0.029587, Final residual = 2.58685e-05, No Iterations 2
DILUPBiCG:  Solving for k, Initial residual = 0.0569625, Final residual = 2.86771e-06, No Iterations 3
DICPCG:  Solving for G, Initial residual = 0.00500045, Final residual = 0.000479668, No Iterations 12
Before T+T solve
BiCG:  Solving for T+T, Initial residual = 0.00257587, Final residual = 7.10597e-05, No Iterations 3
Tres = -1.877
TsRes = -0.346604
ExecutionTime = 0.09 s



Wall heat fluxes [W]
movingWall -0.399537 2.60209e-15 -0.311293 -0.710829
left 0.0297036 4.50918e-16 0.244799 0.274502
right -0.0523493 1.24488e-15 -0.0220538 -0.0744031
bottom -0.0870183 0 0.0885479 0.00152953
movingWall2 -0.322865 -1.22346e-17 0.324783 0.00191829
left2 -0.156281 3.17438e-16 0.243275 0.0869938
right2 -0.718452 -9.28873e-15 -0.830021 -1.54847
bottom2 -0.259625 0 0.261962 0.00233782
frontAndBack 0 0 0 0
sum -1.96642 -4.68565e-15 2.29429e-08 -1.96642


Wall heat fluxes [W]
topAndBottom 0 0 0 0
left 0 0 0 0
right -0.346604 0 0 -0.346604
frontAndBack 0 0 0 0
sum -0.346604 0 0 -0.346604

Time = 12

DILUPBiCG:  Solving for Ux, Initial residual = 0.0277473, Final residual = 0.000229152, No Iterations 1
DILUPBiCG:  Solving for Uy, Initial residual = 0.0412978, Final residual = 1.24871e-05, No Iterations 2
DICPCG:  Solving for p_rgh, Initial residual = 0.0802497, Final residual = 0.000749814, No Iterations 11
time step continuity errors : sum local = 0.00121777, global = -2.37566e-17, cumulative = 5.80846e-17
DILUPBiCG:  Solving for epsilon, Initial residual = 0.0256235, Final residual = 2.05826e-05, No Iterations 2
DILUPBiCG:  Solving for k, Initial residual = 0.0551995, Final residual = 0.000456908, No Iterations 2
DICPCG:  Solving for G, Initial residual = 0.00501542, Final residual = 0.000453882, No Iterations 12
Before T+T solve
BiCG:  Solving for T+T, Initial residual = 0.00246798, Final residual = 5.16424e-05, No Iterations 3
Tres = -1.86226
TsRes = -0.254485
ExecutionTime = 0.09 s



Wall heat fluxes [W]
movingWall -0.39655 -3.25261e-15 -0.309303 -0.705853
left 0.0302419 6.9372e-17 0.246782 0.277024
right -0.0501693 -9.50543e-16 -0.0249711 -0.0751404
bottom -0.0860124 0 0.0874919 0.00147949
movingWall2 -0.322346 1.56648e-15 0.32434 0.00199359
left2 -0.154956 2.48189e-15 0.241622 0.0866655
right2 -0.718781 -7.58264e-16 -0.826645 -1.54543
bottom2 -0.258221 0 0.260683 0.00246199
frontAndBack 0 0 0 0
sum -1.95679 -8.43678e-16 5.46808e-08 -1.95679


Wall heat fluxes [W]
topAndBottom 0 0 0 0
left 0 0 0 0
right -0.254485 0 0 -0.254485
frontAndBack 0 0 0 0
sum -0.254485 0 0 -0.254485

Time = 13

DILUPBiCG:  Solving for Ux, Initial residual = 0.0250514, Final residual = 0.00019043, No Iterations 1
DILUPBiCG:  Solving for Uy, Initial residual = 0.0390348, Final residual = 1.65067e-05, No Iterations 2
DICPCG:  Solving for p_rgh, Initial residual = 0.0757043, Final residual = 0.000724048, No Iterations 11
time step continuity errors : sum local = 0.00115683, global = 3.719e-17, cumulative = 9.52747e-17
DILUPBiCG:  Solving for epsilon, Initial residual = 0.0222536, Final residual = 1.669e-05, No Iterations 2
DILUPBiCG:  Solving for k, Initial residual = 0.0538006, Final residual = 0.000269833, No Iterations 2
DICPCG:  Solving for G, Initial residual = 0.00482576, Final residual = 0.000410751, No Iterations 12
Before T+T solve
BiCG:  Solving for T+T, Initial residual = 0.00239544, Final residual = 0.000170261, No Iterations 4
Tres = -1.90486
TsRes = -0.195387
ExecutionTime = 0.1 s



Wall heat fluxes [W]
movingWall -0.393499 -1.30104e-15 -0.307509 -0.701008
left 0.0306537 1.38744e-16 0.248573 0.279226
right -0.046683 -5.27777e-16 -0.0274057 -0.0740887
bottom -0.0849642 0 0.0863419 0.00137769
movingWall2 -0.321643 1.58874e-15 0.323734 0.00209112
left2 -0.153361 2.41344e-16 0.240399 0.0870388
right2 -0.719701 2.27479e-15 -0.823279 -1.54298
bottom2 -0.256805 0 0.259145 0.00234084
frontAndBack 0 0 0 0
sum -1.946 2.4148e-15 1.28031e-07 -1.946


Wall heat fluxes [W]
topAndBottom 0 0 0 0
left 0 0 0 0
right -0.195387 0 0 -0.195387
frontAndBack 0 0 0 0
sum -0.195387 0 0 -0.195387

Time = 14

DILUPBiCG:  Solving for Ux, Initial residual = 0.0229623, Final residual = 0.000175467, No Iterations 1
DILUPBiCG:  Solving for Uy, Initial residual = 0.0369354, Final residual = 1.60181e-05, No Iterations 2
DICPCG:  Solving for p_rgh, Initial residual = 0.0795943, Final residual = 0.000679012, No Iterations 11
time step continuity errors : sum local = 0.00107165, global = -9.37692e-17, cumulative = 1.50547e-18
DILUPBiCG:  Solving for epsilon, Initial residual = 0.019161, Final residual = 1.32063e-05, No Iterations 2
DILUPBiCG:  Solving for k, Initial residual = 0.0524564, Final residual = 0.000175317, No Iterations 2
DICPCG:  Solving for G, Initial residual = 0.00471932, Final residual = 0.000404017, No Iterations 12
Before T+T solve
BiCG:  Solving for T+T, Initial residual = 0.00235639, Final residual = 0.000210995, No Iterations 2
Tres = -1.87388
TsRes = -0.18435
ExecutionTime = 0.1 s



Wall heat fluxes [W]
movingWall -0.390176 -6.50521e-16 -0.305825 -0.696001
left 0.0310647 0 0.250253 0.281318
right -0.0442613 3.97712e-16 -0.0297128 -0.0739741
bottom -0.0838567 0 0.0852845 0.00142787
movingWall2 -0.320397 -9.40116e-16 0.322942 0.00254511
left2 -0.151591 -8.01128e-16 0.239109 0.0875178
right2 -0.720317 -5.30785e-15 -0.819907 -1.54022
bottom2 -0.255266 0 0.257856 0.00259052
frontAndBack 0 0 0 0
sum -1.9348 -7.3019e-15 1.08549e-07 -1.9348


Wall heat fluxes [W]
topAndBottom 0 0 0 0
left 0 0 0 0
right -0.18435 0 0 -0.18435
frontAndBack 0 0 0 0
sum -0.18435 0 0 -0.18435

Time = 15

DILUPBiCG:  Solving for Ux, Initial residual = 0.0211087, Final residual = 0.000158381, No Iterations 1
DILUPBiCG:  Solving for Uy, Initial residual = 0.0361799, Final residual = 1.58529e-05, No Iterations 2
DICPCG:  Solving for p_rgh, Initial residual = 0.0789779, Final residual = 0.000596467, No Iterations 11
time step continuity errors : sum local = 0.000940308, global = 8.82767e-17, cumulative = 8.97822e-17
DILUPBiCG:  Solving for epsilon, Initial residual = 0.0165409, Final residual = 1.18657e-05, No Iterations 2
DILUPBiCG:  Solving for k, Initial residual = 0.0510892, Final residual = 0.000129005, No Iterations 2
DICPCG:  Solving for G, Initial residual = 0.0054249, Final residual = 0.000528947, No Iterations 12
Before T+T solve
BiCG:  Solving for T+T, Initial residual = 0.00236387, Final residual = 0.000223495, No Iterations 2
Tres = -1.85776
TsRes = -0.171766
ExecutionTime = 0.11 s



Wall heat fluxes [W]
movingWall -0.386744 3.25261e-15 -0.303871 -0.690616
left 0.0315307 1.7343e-17 0.252201 0.283732
right -0.042351 4.97977e-16 -0.0327266 -0.0750776
bottom -0.0829611 0 0.0843965 0.00143542
movingWall2 -0.318833 -6.27048e-16 0.321765 0.00293189
left2 -0.149952 -8.37636e-17 0.237659 0.0877071
right2 -0.720101 3.79132e-15 -0.816013 -1.53611
bottom2 -0.253736 0 0.256588 0.00285234
frontAndBack 0 0 0 0
sum -1.92315 6.84843e-15 3.63772e-08 -1.92315


Wall heat fluxes [W]
topAndBottom 0 0 0 0
left 0 0 0 0
right -0.171766 0 0 -0.171766
frontAndBack 0 0 0 0
sum -0.171766 0 0 -0.171766

Time = 16

DILUPBiCG:  Solving for Ux, Initial residual = 0.019497, Final residual = 0.000146816, No Iterations 1
DILUPBiCG:  Solving for Uy, Initial residual = 0.03499, Final residual = 2.17026e-05, No Iterations 2
DICPCG:  Solving for p_rgh, Initial residual = 0.0702022, Final residual = 0.000512836, No Iterations 11
time step continuity errors : sum local = 0.000811457, global = 3.46775e-17, cumulative = 1.2446e-16
DILUPBiCG:  Solving for epsilon, Initial residual = 0.0142827, Final residual = 1.16499e-05, No Iterations 2
DILUPBiCG:  Solving for k, Initial residual = 0.0495865, Final residual = 0.000100764, No Iterations 2
DICPCG:  Solving for G, Initial residual = 0.00577157, Final residual = 0.000480503, No Iterations 12
Before T+T solve
BiCG:  Solving for T+T, Initial residual = 0.00237077, Final residual = 0.000221809, No Iterations 2
Tres = -1.8445
TsRes = -0.159268
ExecutionTime = 0.11 s



Wall heat fluxes [W]
movingWall -0.383204 5.20417e-15 -0.302032 -0.685237
left 0.0321364 8.6715e-17 0.254036 0.286173
right -0.0408398 -1.30786e-16 -0.0353844 -0.0762242
bottom -0.0821293 0 0.0833805 0.00125111
movingWall2 -0.316891 1.59281e-15 0.320184 0.00329282
left2 -0.148405 -2.00633e-15 0.2364 0.0879956
right2 -0.718906 -1.89566e-15 -0.811749 -1.53066
bottom2 -0.252179 0 0.255165 0.00298589
frontAndBack 0 0 0 0
sum -1.91042 2.85091e-15 1.59256e-07 -1.91042


Wall heat fluxes [W]
topAndBottom 0 0 0 0
left 0 0 0 0
right -0.159268 0 0 -0.159268
frontAndBack 0 0 0 0
sum -0.159268 0 0 -0.159268

Time = 17

DILUPBiCG:  Solving for Ux, Initial residual = 0.0183696, Final residual = 0.000140431, No Iterations 1
DILUPBiCG:  Solving for Uy, Initial residual = 0.0342064, Final residual = 3.39165e-05, No Iterations 2
DICPCG:  Solving for p_rgh, Initial residual = 0.0646033, Final residual = 0.000592918, No Iterations 10
time step continuity errors : sum local = 0.000932517, global = 1.95215e-18, cumulative = 1.26412e-16
DILUPBiCG:  Solving for epsilon, Initial residual = 0.0121648, Final residual = 1.08679e-05, No Iterations 2
DILUPBiCG:  Solving for k, Initial residual = 0.0483464, Final residual = 7.71198e-05, No Iterations 2
DICPCG:  Solving for G, Initial residual = 0.00581835, Final residual = 0.000491633, No Iterations 12
Before T+T solve
BiCG:  Solving for T+T, Initial residual = 0.00237512, Final residual = 0.000228796, No Iterations 1
Tres = -1.83606
TsRes = -0.155385
ExecutionTime = 0.12 s



Wall heat fluxes [W]
movingWall -0.379773 3.90313e-15 -0.300394 -0.680167
left 0.0325003 -6.9372e-17 0.255669 0.288169
right -0.040105 5.77132e-17 -0.0378048 -0.0779098
bottom -0.081346 0 0.0825299 0.00118393
movingWall2 -0.314689 -9.51696e-16 0.318137 0.00344891
left2 -0.147672 -1.1274e-15 0.235361 0.0876886
right2 -0.717191 -5.68698e-16 -0.807228 -1.52442
bottom2 -0.250721 0 0.25373 0.00300943
frontAndBack 0 0 0 0
sum -1.899 1.24367e-15 1.19585e-07 -1.899


Wall heat fluxes [W]
topAndBottom 0 0 0 0
left 0 0 0 0
right -0.155385 0 0 -0.155385
frontAndBack 0 0 0 0
sum -0.155385 0 0 -0.155385

Time = 18

DILUPBiCG:  Solving for Ux, Initial residual = 0.0174727, Final residual = 0.000140733, No Iterations 1
DILUPBiCG:  Solving for Uy, Initial residual = 0.0342323, Final residual = 4.0682e-05, No Iterations 2
DICPCG:  Solving for p_rgh, Initial residual = 0.0656041, Final residual = 0.000565701, No Iterations 10
time step continuity errors : sum local = 0.000895818, global = 3.30769e-18, cumulative = 1.29719e-16
DILUPBiCG:  Solving for epsilon, Initial residual = 0.0102926, Final residual = 2.27478e-05, No Iterations 2
DILUPBiCG:  Solving for k, Initial residual = 0.047315, Final residual = 6.33417e-05, No Iterations 2
DICPCG:  Solving for G, Initial residual = 0.00577473, Final residual = 0.000452941, No Iterations 12
Before T+T solve
BiCG:  Solving for T+T, Initial residual = 0.00238666, Final residual = 0.000225738, No Iterations 1
Tres = -1.82181
TsRes = -0.151559
ExecutionTime = 0.12 s



Wall heat fluxes [W]
movingWall -0.376278 1.30104e-15 -0.298898 -0.675177
left 0.0328823 -1.04058e-16 0.257162 0.290045
right -0.0392815 -4.95384e-16 -0.0399363 -0.0792179
bottom -0.0805217 0 0.0816722 0.0011505
movingWall2 -0.312133 -1.58983e-15 0.315867 0.00373366
left2 -0.146235 2.09239e-15 0.234417 0.0881813
right2 -0.714787 7.58264e-16 -0.80262 -1.51741
bottom2 -0.249105 0 0.252336 0.00323096
frontAndBack 0 0 0 0
sum -1.88546 1.96243e-15 1.92059e-07 -1.88546


Wall heat fluxes [W]
topAndBottom 0 0 0 0
left 0 0 0 0
right -0.151559 0 0 -0.151559
frontAndBack 0 0 0 0
sum -0.151559 0 0 -0.151559

Time = 19

DILUPBiCG:  Solving for Ux, Initial residual = 0.0169633, Final residual = 0.000136883, No Iterations 1
DILUPBiCG:  Solving for Uy, Initial residual = 0.0341322, Final residual = 3.86968e-05, No Iterations 2
DICPCG:  Solving for p_rgh, Initial residual = 0.0629685, Final residual = 0.000521442, No Iterations 10
time step continuity errors : sum local = 0.000822848, global = -3.11682e-17, cumulative = 9.85513e-17
DILUPBiCG:  Solving for epsilon, Initial residual = 0.0092354, Final residual = 1.47888e-05, No Iterations 2
DILUPBiCG:  Solving for k, Initial residual = 0.0462433, Final residual = 6.09738e-05, No Iterations 2
DICPCG:  Solving for G, Initial residual = 0.00556669, Final residual = 0.000552207, No Iterations 11
Before T+T solve
BiCG:  Solving for T+T, Initial residual = 0.00239602, Final residual = 0.000223774, No Iterations 1
Tres = -1.80716
TsRes = -0.147826
ExecutionTime = 0.13 s



Wall heat fluxes [W]
movingWall -0.372774 -2.60209e-15 -0.297635 -0.670409
left 0.0333034 3.4686e-17 0.258423 0.291726
right -0.0387765 1.72705e-16 -0.0414341 -0.0802106
bottom -0.0796335 0 0.0806462 0.00101271
movingWall2 -0.309045 3.20807e-16 0.313051 0.00400569
left2 -0.144732 -1.45629e-15 0.234405 0.0896735
right2 -0.712168 2.46436e-15 -0.797983 -1.51015
bottom2 -0.24715 0 0.250525 0.00337572
frontAndBack 0 0 0 0
sum -1.87098 -1.06582e-15 -3.77267e-07 -1.87098


Wall heat fluxes [W]
topAndBottom 0 0 0 0
left 0 0 0 0
right -0.147826 0 0 -0.147826
frontAndBack 0 0 0 0
sum -0.147826 0 0 -0.147826

Time = 20

DILUPBiCG:  Solving for Ux, Initial residual = 0.0162902, Final residual = 0.000130791, No Iterations 1
DILUPBiCG:  Solving for Uy, Initial residual = 0.0339599, Final residual = 1.72166e-05, No Iterations 2
DICPCG:  Solving for p_rgh, Initial residual = 0.0599236, Final residual = 0.000464599, No Iterations 10
time step continuity errors : sum local = 0.000726038, global = 3.21608e-17, cumulative = 1.30712e-16
DILUPBiCG:  Solving for epsilon, Initial residual = 0.00910422, Final residual = 1.34958e-05, No Iterations 2
DILUPBiCG:  Solving for k, Initial residual = 0.045458, Final residual = 6.38063e-05, No Iterations 2
DICPCG:  Solving for G, Initial residual = 0.00600905, Final residual = 0.00043917, No Iterations 11
Before T+T solve
BiCG:  Solving for T+T, Initial residual = 0.00240609, Final residual = 0.00022156, No Iterations 1
Tres = -1.79107
TsRes = -0.144177
ExecutionTime = 0.13 s



Wall heat fluxes [W]
movingWall -0.369006 -1.30104e-15 -0.296426 -0.665433
left 0.0337768 1.04058e-16 0.259628 0.293405
right -0.0384216 1.92159e-16 -0.0430435 -0.0814651
bottom -0.078831 0 0.0798416 0.00101052
movingWall2 -0.305686 -3.15042e-16 0.310095 0.00440837
left2 -0.142881 1.77738e-15 0.234023 0.0911416
right2 -0.708692 7.58264e-16 -0.792943 -1.50164
bottom2 -0.245123 0 0.248825 0.00370279
frontAndBack 0 0 0 0
sum -1.85486 1.21578e-15 -2.29048e-07 -1.85486


Wall heat fluxes [W]
topAndBottom 0 0 0 0
left 0 0 0 0
right -0.144177 0 0 -0.144177
frontAndBack 0 0 0 0
sum -0.144177 0 0 -0.144177

Time = 21

DILUPBiCG:  Solving for Ux, Initial residual = 0.0157551, Final residual = 0.00012659, No Iterations 1
DILUPBiCG:  Solving for Uy, Initial residual = 0.0339201, Final residual = 8.14999e-06, No Iterations 2
DICPCG:  Solving for p_rgh, Initial residual = 0.0603032, Final residual = 0.000442975, No Iterations 10
time step continuity errors : sum local = 0.000684903, global = -9.62518e-17, cumulative = 3.44603e-17
DILUPBiCG:  Solving for epsilon, Initial residual = 0.00993982, Final residual = 1.30741e-05, No Iterations 2
DILUPBiCG:  Solving for k, Initial residual = 0.0449404, Final residual = 6.84935e-05, No Iterations 2
DICPCG:  Solving for G, Initial residual = 0.00624369, Final residual = 0.000457919, No Iterations 11
Before T+T solve
BiCG:  Solving for T+T, Initial residual = 0.00240714, Final residual = 0.000219027, No Iterations 1
Tres = -1.77304
TsRes = -0.140614
ExecutionTime = 0.14 s



Wall heat fluxes [W]
movingWall -0.364946 -2.60209e-15 -0.295271 -0.660216
left 0.0343389 4.50918e-16 0.260782 0.295121
right -0.0382612 -3.83377e-16 -0.0444997 -0.0827608
bottom -0.0780116 0 0.0789888 0.000977203
movingWall2 -0.301965 -1.27451e-15 0.306753 0.00478742
left2 -0.140817 -2.66939e-15 0.233836 0.0930189
right2 -0.704265 -2.65392e-15 -0.787481 -1.49175
bottom2 -0.242911 0 0.246892 0.00398142
frontAndBack 0 0 0 0
sum -1.83684 -9.13237e-15 -1.45161e-07 -1.83684


Wall heat fluxes [W]
topAndBottom 0 0 0 0
left 0 0 0 0
right -0.140614 0 0 -0.140614
frontAndBack 0 0 0 0
sum -0.140614 0 0 -0.140614

Time = 22

DILUPBiCG:  Solving for Ux, Initial residual = 0.0151393, Final residual = 0.000125155, No Iterations 1
DILUPBiCG:  Solving for Uy, Initial residual = 0.0334214, Final residual = 5.46702e-06, No Iterations 2
DICPCG:  Solving for p_rgh, Initial residual = 0.0578638, Final residual = 0.000457793, No Iterations 10
time step continuity errors : sum local = 0.000708044, global = -2.89203e-17, cumulative = 5.54004e-18
DILUPBiCG:  Solving for epsilon, Initial residual = 0.0105674, Final residual = 1.17076e-05, No Iterations 2
DILUPBiCG:  Solving for k, Initial residual = 0.0441758, Final residual = 7.35773e-05, No Iterations 2
DICPCG:  Solving for G, Initial residual = 0.00669483, Final residual = 0.00054455, No Iterations 11
Before T+T solve
BiCG:  Solving for T+T, Initial residual = 0.00240702, Final residual = 0.000217156, No Iterations 1
Tres = -1.75283
TsRes = -0.137135
ExecutionTime = 0.14 s



Wall heat fluxes [W]
movingWall -0.360567 -3.25261e-15 -0.294131 -0.654698
left 0.0350942 6.9372e-16 0.261918 0.297012
right -0.0382174 6.93715e-20 -0.0459723 -0.0841897
bottom -0.0772318 0 0.0781854 0.000953578
movingWall2 -0.297938 -3.28895e-16 0.303137 0.005199
left2 -0.138517 2.10528e-15 0.233508 0.0949909
right2 -0.69886 -2.08523e-15 -0.781534 -1.48039
bottom2 -0.240568 0 0.244888 0.00432
frontAndBack 0 0 0 0
sum -1.81681 -2.86766e-15 -5.00901e-07 -1.81681


Wall heat fluxes [W]
topAndBottom 0 0 0 0
left 0 0 0 0
right -0.137135 0 0 -0.137135
frontAndBack 0 0 0 0
sum -0.137135 0 0 -0.137135

Time = 23

DILUPBiCG:  Solving for Ux, Initial residual = 0.0145703, Final residual = 0.000124764, No Iterations 1
DILUPBiCG:  Solving for Uy, Initial residual = 0.0324999, Final residual = 4.06353e-06, No Iterations 2
DICPCG:  Solving for p_rgh, Initial residual = 0.055825, Final residual = 0.000500932, No Iterations 10
time step continuity errors : sum local = 0.000775603, global = 5.82335e-18, cumulative = 1.13634e-17
DILUPBiCG:  Solving for epsilon, Initial residual = 0.0109915, Final residual = 1.11844e-05, No Iterations 2
DILUPBiCG:  Solving for k, Initial residual = 0.0434134, Final residual = 7.80635e-05, No Iterations 2
DICPCG:  Solving for G, Initial residual = 0.00722183, Final residual = 0.000499159, No Iterations 11
Before T+T solve
BiCG:  Solving for T+T, Initial residual = 0.00240325, Final residual = 0.000215461, No Iterations 1
Tres = -1.73055
TsRes = -0.13374
ExecutionTime = 0.15 s



Wall heat fluxes [W]
movingWall -0.35585 3.25261e-15 -0.293011 -0.648861
left 0.0360233 0 0.263035 0.299058
right -0.0382762 7.71186e-17 -0.0474335 -0.0857097
bottom -0.0765083 0 0.0774103 0.000901992
movingWall2 -0.293607 -9.64693e-16 0.299201 0.00559388
left2 -0.135969 3.64873e-15 0.233175 0.0972056
right2 -0.692511 -5.30785e-15 -0.775083 -1.46759
bottom2 -0.238054 0 0.242708 0.00465375
frontAndBack 0 0 0 0
sum -1.79475 7.05919e-16 -1.44504e-07 -1.79475


Wall heat fluxes [W]
topAndBottom 0 0 0 0
left 0 0 0 0
right -0.13374 0 0 -0.13374
frontAndBack 0 0 0 0
sum -0.13374 0 0 -0.13374

Time = 24

DILUPBiCG:  Solving for Ux, Initial residual = 0.0139845, Final residual = 0.000124246, No Iterations 1
DILUPBiCG:  Solving for Uy, Initial residual = 0.0315171, Final residual = 3.42857e-06, No Iterations 2
DICPCG:  Solving for p_rgh, Initial residual = 0.0540601, Final residual = 0.000302176, No Iterations 11
time step continuity errors : sum local = 0.000469649, global = -4.88367e-17, cumulative = -3.74733e-17
DILUPBiCG:  Solving for epsilon, Initial residual = 0.0112066, Final residual = 1.52586e-05, No Iterations 2
DILUPBiCG:  Solving for k, Initial residual = 0.0427647, Final residual = 8.3069e-05, No Iterations 2
DICPCG:  Solving for G, Initial residual = 0.00763577, Final residual = 0.000598047, No Iterations 11
Before T+T solve
BiCG:  Solving for T+T, Initial residual = 0.00239297, Final residual = 0.000212713, No Iterations 1
Tres = -1.70603
TsRes = -0.130428
ExecutionTime = 0.15 s



Wall heat fluxes [W]
movingWall -0.350769 -4.55365e-15 -0.291907 -0.642676
left 0.0371758 0 0.264134 0.30131
right -0.0384106 -3.82211e-16 -0.0489482 -0.0873588
bottom -0.0758847 0 0.0767212 0.000836501
movingWall2 -0.289005 -3.2844e-16 0.294984 0.00597904
left2 -0.133154 -2.44262e-16 0.232769 0.0996146
right2 -0.6853 1.1374e-15 -0.768123 -1.45342
bottom2 -0.235426 0 0.24037 0.00494363
frontAndBack 0 0 0 0
sum -1.77077 -4.37117e-15 -4.81877e-07 -1.77077


Wall heat fluxes [W]
topAndBottom 0 0 0 0
left 0 0 0 0
right -0.130428 0 0 -0.130428
frontAndBack 0 0 0 0
sum -0.130428 0 0 -0.130428

Time = 25

DILUPBiCG:  Solving for Ux, Initial residual = 0.0134465, Final residual = 0.000127759, No Iterations 1
DILUPBiCG:  Solving for Uy, Initial residual = 0.0306595, Final residual = 3.04379e-06, No Iterations 2
DICPCG:  Solving for p_rgh, Initial residual = 0.0536085, Final residual = 0.000361295, No Iterations 11
time step continuity errors : sum local = 0.000564172, global = 2.26978e-17, cumulative = -1.47755e-17
DILUPBiCG:  Solving for epsilon, Initial residual = 0.0114299, Final residual = 2.89567e-05, No Iterations 2
DILUPBiCG:  Solving for k, Initial residual = 0.0419999, Final residual = 8.79009e-05, No Iterations 2
DICPCG:  Solving for G, Initial residual = 0.00817106, Final residual = 0.000646894, No Iterations 11
Before T+T solve
BiCG:  Solving for T+T, Initial residual = 0.00237923, Final residual = 0.000209795, No Iterations 1
Tres = -1.67932
TsRes = -0.127197
ExecutionTime = 0.15 s



Wall heat fluxes [W]
movingWall -0.345319 1.30104e-15 -0.290823 -0.636142
left 0.0386074 -6.9372e-17 0.265214 0.303821
right -0.0385846 6.89539e-16 -0.0505341 -0.0891187
bottom -0.0753473 0 0.0761431 0.000795776
movingWall2 -0.284146 2.26247e-15 0.290482 0.0063357
left2 -0.130097 -4.90091e-16 0.232255 0.102159
right2 -0.677316 -1.89566e-15 -0.760675 -1.43799
bottom2 -0.232614 0 0.237938 0.00532431
frontAndBack 0 0 0 0
sum -1.74482 1.79792e-15 -2.04778e-07 -1.74482


Wall heat fluxes [W]
topAndBottom 0 0 0 0
left 0 0 0 0
right -0.127197 0 0 -0.127197
frontAndBack 0 0 0 0
sum -0.127197 0 0 -0.127197

Time = 26

DILUPBiCG:  Solving for Ux, Initial residual = 0.0129762, Final residual = 7.05425e-06, No Iterations 2
DILUPBiCG:  Solving for Uy, Initial residual = 0.0295272, Final residual = 2.91901e-06, No Iterations 2
DICPCG:  Solving for p_rgh, Initial residual = 0.0543881, Final residual = 0.000406826, No Iterations 11
time step continuity errors : sum local = 0.000632464, global = 6.61744e-18, cumulative = -8.15807e-18
DILUPBiCG:  Solving for epsilon, Initial residual = 0.0115711, Final residual = 8.0178e-05, No Iterations 2
DILUPBiCG:  Solving for k, Initial residual = 0.0412769, Final residual = 9.40236e-05, No Iterations 2
DICPCG:  Solving for G, Initial residual = 0.00864196, Final residual = 0.000726774, No Iterations 11
Before T+T solve
BiCG:  Solving for T+T, Initial residual = 0.00236081, Final residual = 0.000206843, No Iterations 1
Tres = -1.65032
TsRes = -0.124047
ExecutionTime = 0.16 s



Wall heat fluxes [W]
movingWall -0.339499 -1.30104e-15 -0.289742 -0.629241
left 0.0403954 -5.54976e-16 0.26629 0.306685
right -0.0387891 5.75989e-16 -0.0521908 -0.09098
bottom -0.0748683 0 0.0756426 0.000774284
movingWall2 -0.27911 6.46942e-16 0.285783 0.00667374
left2 -0.126932 -1.62506e-16 0.231664 0.104732
right2 -0.668665 1.1374e-15 -0.75271 -1.42137
bottom2 -0.229572 0 0.235263 0.00569017
frontAndBack 0 0 0 0
sum -1.71704 3.41803e-16 -4.5769e-07 -1.71704


Wall heat fluxes [W]
topAndBottom 0 0 0 0
left 0 0 0 0
right -0.124047 0 0 -0.124047
frontAndBack 0 0 0 0
sum -0.124047 0 0 -0.124047

Time = 27

DILUPBiCG:  Solving for Ux, Initial residual = 0.0124923, Final residual = 2.30618e-08, No Iterations 3
DILUPBiCG:  Solving for Uy, Initial residual = 0.0282006, Final residual = 2.87489e-06, No Iterations 2
DICPCG:  Solving for p_rgh, Initial residual = 0.0545994, Final residual = 0.000440252, No Iterations 11
time step continuity errors : sum local = 0.000679045, global = -2.97785e-17, cumulative = -3.79366e-17
DILUPBiCG:  Solving for epsilon, Initial residual = 0.011678, Final residual = 1.04148e-06, No Iterations 3
DILUPBiCG:  Solving for k, Initial residual = 0.0404659, Final residual = 0.000100785, No Iterations 2
DICPCG:  Solving for G, Initial residual = 0.00916729, Final residual = 0.000798392, No Iterations 11
Before T+T solve
BiCG:  Solving for T+T, Initial residual = 0.00233833, Final residual = 0.000203623, No Iterations 1
Tres = -1.6192
TsRes = -0.120976
ExecutionTime = 0.16 s



Wall heat fluxes [W]
movingWall -0.333309 1.95156e-15 -0.288644 -0.621954
left 0.0425878 3.4686e-17 0.267382 0.30997
right -0.0390023 1.17504e-16 -0.0539391 -0.0929414
bottom -0.0744764 0 0.0752014 0.000725016
movingWall2 -0.273948 -6.43776e-16 0.280915 0.00696784
left2 -0.123688 -3.2652e-16 0.230958 0.10727
right2 -0.659464 -3.41219e-15 -0.744236 -1.4037
bottom2 -0.226298 0 0.232363 0.0060643
frontAndBack 0 0 0 0
sum -1.6876 -2.27873e-15 -3.66723e-08 -1.6876


Wall heat fluxes [W]
topAndBottom 0 0 0 0
left 0 0 0 0
right -0.120976 0 0 -0.120976
frontAndBack 0 0 0 0
sum -0.120976 0 0 -0.120976

Time = 28

DILUPBiCG:  Solving for Ux, Initial residual = 0.0120916, Final residual = 7.63118e-06, No Iterations 2
DILUPBiCG:  Solving for Uy, Initial residual = 0.026772, Final residual = 2.9319e-06, No Iterations 2
DICPCG:  Solving for p_rgh, Initial residual = 0.0546544, Final residual = 0.000441469, No Iterations 11
time step continuity errors : sum local = 0.000676871, global = -9.99234e-17, cumulative = -1.3786e-16
DILUPBiCG:  Solving for epsilon, Initial residual = 0.0117816, Final residual = 9.6492e-07, No Iterations 3
DILUPBiCG:  Solving for k, Initial residual = 0.0393843, Final residual = 0.000101259, No Iterations 2
DICPCG:  Solving for G, Initial residual = 0.00958298, Final residual = 0.000894167, No Iterations 11
Before T+T solve
BiCG:  Solving for T+T, Initial residual = 0.00231304, Final residual = 0.000201189, No Iterations 1
Tres = -1.5865
TsRes = -0.117982
ExecutionTime = 0.17 s



Wall heat fluxes [W]
movingWall -0.326767 -6.50521e-16 -0.287547 -0.614314
left 0.0451961 -7.63092e-16 0.268474 0.31367
right -0.0392084 4.98465e-16 -0.0557851 -0.0949936
bottom -0.0741527 0 0.0748582 0.000705471
movingWall2 -0.268726 -1.63486e-15 0.275916 0.00718998
left2 -0.120486 -3.0336e-15 0.230216 0.10973
right2 -0.650286 -1.1374e-15 -0.735304 -1.38559
bottom2 -0.222771 0 0.229172 0.0064005
frontAndBack 0 0 0 0
sum -1.6572 -6.721e-15 -3.84847e-07 -1.6572


Wall heat fluxes [W]
topAndBottom 0 0 0 0
left 0 0 0 0
right -0.117982 0 0 -0.117982
frontAndBack 0 0 0 0
sum -0.117982 0 0 -0.117982

Time = 29

DILUPBiCG:  Solving for Ux, Initial residual = 0.0117039, Final residual = 4.22119e-06, No Iterations 2
DILUPBiCG:  Solving for Uy, Initial residual = 0.0253114, Final residual = 3.05922e-06, No Iterations 2
DICPCG:  Solving for p_rgh, Initial residual = 0.0559134, Final residual = 0.000447806, No Iterations 11
time step continuity errors : sum local = 0.000681742, global = 2.15729e-17, cumulative = -1.16287e-16
DILUPBiCG:  Solving for epsilon, Initial residual = 0.01177, Final residual = 8.11718e-05, No Iterations 2
DILUPBiCG:  Solving for k, Initial residual = 0.0383091, Final residual = 0.000100722, No Iterations 2
DICPCG:  Solving for G, Initial residual = 0.00996666, Final residual = 0.00062384, No Iterations 12
Before T+T solve
BiCG:  Solving for T+T, Initial residual = 0.00228339, Final residual = 0.000198319, No Iterations 1
Tres = -1.55212
TsRes = -0.115065
ExecutionTime = 0.17 s



Wall heat fluxes [W]
movingWall -0.319909 6.50521e-16 -0.286438 -0.606347
left 0.0482564 -5.2029e-16 0.269577 0.317834
right -0.0393946 3.84322e-16 -0.0577052 -0.0970998
bottom -0.0738842 0 0.0745662 0.000681969
movingWall2 -0.263535 6.58133e-16 0.270862 0.00732726
left2 -0.117469 -1.80457e-15 0.229424 0.111955
right2 -0.640882 4.36002e-15 -0.725982 -1.36686
bottom2 -0.218985 0 0.225697 0.00671112
frontAndBack 0 0 0 0
sum -1.6258 3.72814e-15 3.74943e-07 -1.6258


Wall heat fluxes [W]
topAndBottom 0 0 0 0
left 0 0 0 0
right -0.115065 0 0 -0.115065
frontAndBack 0 0 0 0
sum -0.115065 0 0 -0.115065

Time = 30

DILUPBiCG:  Solving for Ux, Initial residual = 0.0113732, Final residual = 3.24708e-06, No Iterations 2
DILUPBiCG:  Solving for Uy, Initial residual = 0.0239952, Final residual = 3.17738e-06, No Iterations 2
DICPCG:  Solving for p_rgh, Initial residual = 0.0573903, Final residual = 0.000481208, No Iterations 11
time step continuity errors : sum local = 0.000728304, global = -9.56883e-17, cumulative = -2.11975e-16
DILUPBiCG:  Solving for epsilon, Initial residual = 0.0116532, Final residual = 5.85241e-05, No Iterations 2
DILUPBiCG:  Solving for k, Initial residual = 0.0370913, Final residual = 0.000100851, No Iterations 2
DICPCG:  Solving for G, Initial residual = 0.00991617, Final residual = 0.000709148, No Iterations 12
Before T+T solve
BiCG:  Solving for T+T, Initial residual = 0.00224644, Final residual = 0.000196079, No Iterations 1
Tres = -1.51623
TsRes = -0.112221
ExecutionTime = 0.18 s



Wall heat fluxes [W]
movingWall -0.312786 6.50521e-16 -0.285324 -0.59811
left 0.0517825 6.9372e-17 0.270685 0.322468
right -0.0395423 -7.30467e-16 -0.0596875 -0.0992298
bottom -0.0736692 0 0.0743257 0.000656556
movingWall2 -0.25848 3.27952e-16 0.265826 0.0073464
left2 -0.114792 -4.44631e-15 0.228645 0.113853
right2 -0.630916 7.58264e-16 -0.716365 -1.34728
bottom2 -0.214925 0 0.221895 0.00696976
frontAndBack 0 0 0 0
sum -1.59333 -3.37067e-15 4.07779e-07 -1.59333


Wall heat fluxes [W]
topAndBottom 0 0 0 0
left 0 0 0 0
right -0.112221 0 0 -0.112221
frontAndBack 0 0 0 0
sum -0.112221 0 0 -0.112221

Time = 31

DILUPBiCG:  Solving for Ux, Initial residual = 0.0109802, Final residual = 2.83714e-06, No Iterations 2
DILUPBiCG:  Solving for Uy, Initial residual = 0.022597, Final residual = 3.25058e-06, No Iterations 2
DICPCG:  Solving for p_rgh, Initial residual = 0.0588954, Final residual = 0.000515377, No Iterations 11
time step continuity errors : sum local = 0.000781661, global = -2.1242e-17, cumulative = -2.33217e-16
DILUPBiCG:  Solving for epsilon, Initial residual = 0.011484, Final residual = 4.35281e-05, No Iterations 2
DILUPBiCG:  Solving for k, Initial residual = 0.0356379, Final residual = 0.000103407, No Iterations 2
DICPCG:  Solving for G, Initial residual = 0.00999849, Final residual = 0.000705303, No Iterations 12
Before T+T solve
BiCG:  Solving for T+T, Initial residual = 0.00220311, Final residual = 0.000195269, No Iterations 1
Tres = -1.47426
TsRes = -0.109447
ExecutionTime = 0.18 s



Wall heat fluxes [W]
movingWall -0.305465 1.95156e-15 -0.284215 -0.589681
left 0.0557654 -3.4686e-16 0.271787 0.327553
right -0.0396334 -3.93208e-17 -0.0617012 -0.101335
bottom -0.073502 0 0.0741296 0.000627614
movingWall2 -0.253693 -9.81935e-16 0.260912 0.0072189
left2 -0.11264 2.30373e-15 0.227939 0.115299
right2 -0.620489 -3.79132e-15 -0.706588 -1.32708
bottom2 -0.210578 0 0.217737 0.00715945
frontAndBack 0 0 0 0
sum -1.56024 -9.04143e-16 4.48228e-07 -1.56023


Wall heat fluxes [W]
topAndBottom 0 0 0 0
left 0 0 0 0
right -0.109447 0 0 -0.109447
frontAndBack 0 0 0 0
sum -0.109447 0 0 -0.109447

Time = 32

DILUPBiCG:  Solving for Ux, Initial residual = 0.0105849, Final residual = 2.68921e-06, No Iterations 2
DILUPBiCG:  Solving for Uy, Initial residual = 0.0212852, Final residual = 3.3207e-06, No Iterations 2
DICPCG:  Solving for p_rgh, Initial residual = 0.0574427, Final residual = 0.000492924, No Iterations 11
time step continuity errors : sum local = 0.000749925, global = -3.97378e-17, cumulative = -2.72955e-16
DILUPBiCG:  Solving for epsilon, Initial residual = 0.0112574, Final residual = 3.38113e-05, No Iterations 2
DILUPBiCG:  Solving for k, Initial residual = 0.0340996, Final residual = 0.000110168, No Iterations 2
DICPCG:  Solving for G, Initial residual = 0.0098236, Final residual = 0.000689863, No Iterations 12
Before T+T solve
BiCG:  Solving for T+T, Initial residual = 0.00215581, Final residual = 0.000195147, No Iterations 1
Tres = -1.42106
TsRes = -0.10674
ExecutionTime = 0.19 s



Wall heat fluxes [W]
movingWall -0.298014 -1.30104e-15 -0.283128 -0.581143
left 0.0601656 -8.6715e-16 0.272868 0.333034
right -0.0396473 1.69789e-20 -0.06371 -0.103357
bottom -0.0733779 0 0.0739702 0.000592271
movingWall2 -0.249248 -9.91967e-16 0.256246 0.00699794
left2 -0.110914 -1.69507e-16 0.227379 0.116465
right2 -0.609705 1.89566e-15 -0.696817 -1.30652
bottom2 -0.205925 0 0.213193 0.00726788
frontAndBack 0 0 0 0
sum -1.52667 -1.43399e-15 4.47226e-07 -1.52667


Wall heat fluxes [W]
topAndBottom 0 0 0 0
left 0 0 0 0
right -0.10674 0 0 -0.10674
frontAndBack 0 0 0 0
sum -0.10674 0 0 -0.10674

Time = 33

DILUPBiCG:  Solving for Ux, Initial residual = 0.010177, Final residual = 2.67632e-06, No Iterations 2
DILUPBiCG:  Solving for Uy, Initial residual = 0.0200882, Final residual = 3.36113e-06, No Iterations 2
DICPCG:  Solving for p_rgh, Initial residual = 0.0556815, Final residual = 0.000424873, No Iterations 11
time step continuity errors : sum local = 0.000644448, global = 3.52048e-17, cumulative = -2.3775e-16
DILUPBiCG:  Solving for epsilon, Initial residual = 0.0109769, Final residual = 2.77797e-05, No Iterations 2
DILUPBiCG:  Solving for k, Initial residual = 0.0326538, Final residual = 0.000121516, No Iterations 2
DICPCG:  Solving for G, Initial residual = 0.0094906, Final residual = 0.000658206, No Iterations 12
Before T+T solve
BiCG:  Solving for T+T, Initial residual = 0.00211822, Final residual = 0.000145439, No Iterations 3
Tres = -1.42844
TsRes = -0.0993599
ExecutionTime = 0.19 s



Wall heat fluxes [W]
movingWall -0.290392 -1.95156e-15 -0.282082 -0.572474
left 0.0649544 6.9372e-16 0.273909 0.338864
right -0.0375454 1.564e-16 -0.065668 -0.103213
bottom -0.073268 0 0.0738409 0.000572845
movingWall2 -0.245087 9.88883e-16 0.251852 0.00676524
left2 -0.104042 1.98497e-15 0.2271 0.123058
right2 -0.599009 -1.1374e-15 -0.687215 -1.28622
bottom2 -0.200844 0 0.208263 0.00741901
frontAndBack 0 0 0 0
sum -1.48523 7.35016e-16 4.31667e-07 -1.48523


Wall heat fluxes [W]
topAndBottom 0 0 0 0
left 0 0 0 0
right -0.0993599 0 0 -0.0993599
frontAndBack 0 0 0 0
sum -0.0993599 0 0 -0.0993599

Time = 34

DILUPBiCG:  Solving for Ux, Initial residual = 0.0115089, Final residual = 4.80706e-06, No Iterations 2
DILUPBiCG:  Solving for Uy, Initial residual = 0.021221, Final residual = 5.11026e-06, No Iterations 2
DICPCG:  Solving for p_rgh, Initial residual = 0.0786636, Final residual = 0.000674979, No Iterations 6
time step continuity errors : sum local = 0.00125572, global = -5.75718e-18, cumulative = -2.43507e-16
DILUPBiCG:  Solving for epsilon, Initial residual = 0.0105554, Final residual = 2.25444e-05, No Iterations 2
DILUPBiCG:  Solving for k, Initial residual = 0.030895, Final residual = 0.000132626, No Iterations 2
DICPCG:  Solving for G, Initial residual = 0.00918182, Final residual = 0.000614504, No Iterations 12
Before T+T solve
BiCG:  Solving for T+T, Initial residual = 0.00211301, Final residual = 0.000209404, No Iterations 1
Tres = -1.36584
TsRes = -0.0969286
ExecutionTime = 0.2 s



Wall heat fluxes [W]
movingWall -0.283036 1.30104e-15 -0.281069 -0.564104
left 0.0698694 3.81546e-16 0.274917 0.344787
right -0.0395703 -1.1504e-16 -0.0675654 -0.107136
bottom -0.0732506 0 0.073717 0.000466405
movingWall2 -0.240041 -1.98931e-15 0.247765 0.00772374
left2 -0.0984038 2.49712e-15 0.227135 0.128731
right2 -0.588476 -3.03306e-15 -0.677772 -1.26625
bottom2 -0.19566 0 0.202872 0.00721262
frontAndBack 0 0 0 0
sum -1.44857 -9.57701e-16 4.60475e-07 -1.44857


Wall heat fluxes [W]
topAndBottom 0 0 0 0
left 0 0 0 0
right -0.0969286 0 0 -0.0969286
frontAndBack 0 0 0 0
sum -0.0969286 0 0 -0.0969286

Time = 35

DILUPBiCG:  Solving for Ux, Initial residual = 0.0110095, Final residual = 2.48298e-06, No Iterations 2
DILUPBiCG:  Solving for Uy, Initial residual = 0.0184539, Final residual = 3.5859e-06, No Iterations 2
DICPCG:  Solving for p_rgh, Initial residual = 0.0758961, Final residual = 0.000570023, No Iterations 11
time step continuity errors : sum local = 0.000839442, global = 3.77856e-17, cumulative = -2.05722e-16
DILUPBiCG:  Solving for epsilon, Initial residual = 0.0100787, Final residual = 2.09836e-05, No Iterations 2
DILUPBiCG:  Solving for k, Initial residual = 0.0288454, Final residual = 0.000151971, No Iterations 2
DICPCG:  Solving for G, Initial residual = 0.0109741, Final residual = 0.000882442, No Iterations 12
Before T+T solve
BiCG:  Solving for T+T, Initial residual = 0.00205719, Final residual = 0.000193916, No Iterations 1
Tres = -1.33745
TsRes = -0.0945402
ExecutionTime = 0.2 s



Wall heat fluxes [W]
movingWall -0.275742 -1.30104e-15 -0.279423 -0.555165
left 0.0749174 5.2029e-16 0.27655 0.351468
right -0.039998 6.95381e-16 -0.0715612 -0.111559
bottom -0.0736282 0 0.0744344 0.000806135
movingWall2 -0.235237 9.97366e-16 0.243503 0.00826574
left2 -0.0921689 -4.99438e-16 0.223458 0.131289
right2 -0.577766 7.58264e-16 -0.666597 -1.24436
bottom2 -0.191502 0 0.199636 0.00813386
frontAndBack 0 0 0 0
sum -1.41113 1.17082e-15 2.31197e-07 -1.41113


Wall heat fluxes [W]
topAndBottom 0 0 0 0
left 0 0 0 0
right -0.0945402 0 0 -0.0945402
frontAndBack 0 0 0 0
sum -0.0945402 0 0 -0.0945402

Time = 36

DILUPBiCG:  Solving for Ux, Initial residual = 0.0111085, Final residual = 2.17839e-06, No Iterations 2
DILUPBiCG:  Solving for Uy, Initial residual = 0.0173665, Final residual = 4.15613e-06, No Iterations 2
DICPCG:  Solving for p_rgh, Initial residual = 0.0604085, Final residual = 0.000579331, No Iterations 6
time step continuity errors : sum local = 0.000964241, global = -5.85644e-17, cumulative = -2.64286e-16
DILUPBiCG:  Solving for epsilon, Initial residual = 0.00956118, Final residual = 2.33321e-05, No Iterations 2
DILUPBiCG:  Solving for k, Initial residual = 0.0270255, Final residual = 0.000184098, No Iterations 2
DICPCG:  Solving for G, Initial residual = 0.0110633, Final residual = 0.000884708, No Iterations 11
Before T+T solve
BiCG:  Solving for T+T, Initial residual = 0.00200366, Final residual = 0.000172712, No Iterations 1
Tres = -1.29241
TsRes = -0.0922133
ExecutionTime = 0.2 s



Wall heat fluxes [W]
movingWall -0.26867 6.50521e-16 -0.278341 -0.547012
left 0.0800579 7.28406e-16 0.277628 0.357686
right -0.0406483 3.86908e-16 -0.0732025 -0.113851
bottom -0.0735025 0 0.073915 0.000412436
movingWall2 -0.230304 3.33232e-16 0.23845 0.00814581
left2 -0.088106 -1.92383e-15 0.221824 0.133718
right2 -0.567061 -4.54958e-15 -0.655121 -1.22218
bottom2 -0.186996 0 0.194847 0.00785093
frontAndBack 0 0 0 0
sum -1.37523 -4.37435e-15 -1.18535e-06 -1.37523


Wall heat fluxes [W]
topAndBottom 0 0 0 0
left 0 0 0 0
right -0.0922133 0 0 -0.0922133
frontAndBack 0 0 0 0
sum -0.0922133 0 0 -0.0922133

Time = 37

DILUPBiCG:  Solving for Ux, Initial residual = 0.0101344, Final residual = 2.0552e-06, No Iterations 2
DILUPBiCG:  Solving for Uy, Initial residual = 0.0163102, Final residual = 5.0369e-06, No Iterations 2
DICPCG:  Solving for p_rgh, Initial residual = 0.0524033, Final residual = 0.000413044, No Iterations 11
time step continuity errors : sum local = 0.000586553, global = 6.96155e-17, cumulative = -1.94671e-16
DILUPBiCG:  Solving for epsilon, Initial residual = 0.0091172, Final residual = 2.8832e-05, No Iterations 2
DILUPBiCG:  Solving for k, Initial residual = 0.0254166, Final residual = 8.16662e-05, No Iterations 3
DICPCG:  Solving for G, Initial residual = 0.0110028, Final residual = 0.000829121, No Iterations 12
Before T+T solve
BiCG:  Solving for T+T, Initial residual = 0.0019561, Final residual = 0.00016942, No Iterations 1
Tres = -1.26034
TsRes = -0.0899431
ExecutionTime = 0.21 s



Wall heat fluxes [W]
movingWall -0.261994 6.50521e-16 -0.27717 -0.539164
left 0.085153 9.71208e-16 0.278791 0.363944
right -0.0408967 7.09822e-19 -0.0758866 -0.116783
bottom -0.0736352 0 0.0742655 0.000630307
movingWall2 -0.22581 2.67544e-15 0.233902 0.00809168
left2 -0.0843667 1.50559e-15 0.218603 0.134236
right2 -0.55631 -9.4783e-16 -0.643389 -1.1997
bottom2 -0.182802 0 0.190884 0.00808195
frontAndBack 0 0 0 0
sum -1.34066 4.85564e-15 2.26737e-07 -1.34066


Wall heat fluxes [W]
topAndBottom 0 0 0 0
left 0 0 0 0
right -0.0899431 0 0 -0.0899431
frontAndBack 0 0 0 0
sum -0.0899431 0 0 -0.0899431

Time = 38

DILUPBiCG:  Solving for Ux, Initial residual = 0.0100016, Final residual = 2.30743e-06, No Iterations 2
DILUPBiCG:  Solving for Uy, Initial residual = 0.015192, Final residual = 6.09509e-06, No Iterations 2
DICPCG:  Solving for p_rgh, Initial residual = 0.0465782, Final residual = 0.000275407, No Iterations 6
time step continuity errors : sum local = 0.000473819, global = -9.26442e-19, cumulative = -1.95597e-16
DILUPBiCG:  Solving for epsilon, Initial residual = 0.00882862, Final residual = 3.83324e-05, No Iterations 2
DILUPBiCG:  Solving for k, Initial residual = 0.0240311, Final residual = 0.00013139, No Iterations 2
DICPCG:  Solving for G, Initial residual = 0.0103106, Final residual = 0.000617607, No Iterations 12
Before T+T solve
BiCG:  Solving for T+T, Initial residual = 0.00191502, Final residual = 0.000166762, No Iterations 1
Tres = -1.22886
TsRes = -0.0877291
ExecutionTime = 0.21 s



Wall heat fluxes [W]
movingWall -0.255615 -1.30104e-15 -0.276046 -0.53166
left 0.0901518 4.85604e-16 0.27991 0.370062
right -0.0411558 -1.18963e-18 -0.0780016 -0.119157
bottom -0.0735914 0 0.0741373 0.000545901
movingWall2 -0.221293 6.73912e-16 0.228997 0.00770407
left2 -0.0813657 -1.21698e-15 0.21712 0.135754
right2 -0.545614 -1.51653e-15 -0.632114 -1.17773
bottom2 -0.17829 0 0.185998 0.00770821
frontAndBack 0 0 0 0
sum -1.30677 -2.87622e-15 6.29291e-07 -1.30677


Wall heat fluxes [W]
topAndBottom 0 0 0 0
left 0 0 0 0
right -0.0877291 0 0 -0.0877291
frontAndBack 0 0 0 0
sum -0.0877291 0 0 -0.0877291

Time = 39

DILUPBiCG:  Solving for Ux, Initial residual = 0.00973369, Final residual = 2.24294e-06, No Iterations 2
DILUPBiCG:  Solving for Uy, Initial residual = 0.0142448, Final residual = 6.53436e-06, No Iterations 2
DICPCG:  Solving for p_rgh, Initial residual = 0.0426271, Final residual = 0.000369681, No Iterations 6
time step continuity errors : sum local = 0.000663044, global = -7.80858e-17, cumulative = -2.73683e-16
DILUPBiCG:  Solving for epsilon, Initial residual = 0.0085825, Final residual = 5.39956e-05, No Iterations 2
DILUPBiCG:  Solving for k, Initial residual = 0.0226613, Final residual = 7.40053e-05, No Iterations 2
DICPCG:  Solving for G, Initial residual = 0.0096347, Final residual = 0.000593808, No Iterations 12
Before T+T solve
BiCG:  Solving for T+T, Initial residual = 0.00188092, Final residual = 0.000164283, No Iterations 1
Tres = -1.19927
TsRes = -0.0855699
ExecutionTime = 0.22 s



Wall heat fluxes [W]
movingWall -0.249563 -2.60209e-15 -0.274917 -0.52448
left 0.0949309 -7.28406e-16 0.281032 0.375963
right -0.0412719 -3.86875e-16 -0.0802958 -0.121568
bottom -0.0735494 0 0.0741806 0.000631243
movingWall2 -0.217042 6.74442e-16 0.224425 0.00738322
left2 -0.0787016 1.13658e-15 0.215444 0.136743
right2 -0.535959 -2.08523e-15 -0.621286 -1.15725
bottom2 -0.173796 0 0.181418 0.00762117
frontAndBack 0 0 0 0
sum -1.27495 -3.99157e-15 5.71203e-07 -1.27495


Wall heat fluxes [W]
topAndBottom 0 0 0 0
left 0 0 0 0
right -0.0855699 0 0 -0.0855699
frontAndBack 0 0 0 0
sum -0.0855699 0 0 -0.0855699

Time = 40

DILUPBiCG:  Solving for Ux, Initial residual = 0.00961333, Final residual = 2.21528e-06, No Iterations 2
DILUPBiCG:  Solving for Uy, Initial residual = 0.0135181, Final residual = 7.0564e-06, No Iterations 2
DICPCG:  Solving for p_rgh, Initial residual = 0.040263, Final residual = 0.00020367, No Iterations 11
time step continuity errors : sum local = 0.00026586, global = -1.14879e-16, cumulative = -3.88562e-16
DILUPBiCG:  Solving for epsilon, Initial residual = 0.0082921, Final residual = 7.66234e-05, No Iterations 2
DILUPBiCG:  Solving for k, Initial residual = 0.0213998, Final residual = 8.14638e-05, No Iterations 2
DICPCG:  Solving for G, Initial residual = 0.00910314, Final residual = 0.000585268, No Iterations 12
Before T+T solve
BiCG:  Solving for T+T, Initial residual = 0.00184355, Final residual = 0.000161745, No Iterations 1
Tres = -1.17059
TsRes = -0.0834638
ExecutionTime = 0.23 s



Wall heat fluxes [W]
movingWall -0.243945 0 -0.273814 -0.517759
left 0.099447 3.4686e-17 0.282131 0.381578
right -0.0413705 -4.66479e-16 -0.0823459 -0.123716
bottom -0.073376 0 0.0740294 0.000653392
movingWall2 -0.213008 -2.02859e-15 0.220013 0.00700573
left2 -0.0763851 -2.95152e-15 0.214395 0.13801
right2 -0.526457 -2.84349e-15 -0.610939 -1.1374
bottom2 -0.169164 0 0.176531 0.00736681
frontAndBack 0 0 0 0
sum -1.24426 -8.25538e-15 5.32392e-07 -1.24426


Wall heat fluxes [W]
topAndBottom 0 0 0 0
left 0 0 0 0
right -0.0834638 0 0 -0.0834638
frontAndBack 0 0 0 0
sum -0.0834638 0 0 -0.0834638

Time = 41

DILUPBiCG:  Solving for Ux, Initial residual = 0.00939024, Final residual = 2.1268e-06, No Iterations 2
DILUPBiCG:  Solving for Uy, Initial residual = 0.0128419, Final residual = 6.80228e-06, No Iterations 2
DICPCG:  Solving for p_rgh, Initial residual = 0.038153, Final residual = 0.000147306, No Iterations 6
time step continuity errors : sum local = 0.000191892, global = -1.14482e-17, cumulative = -4.0001e-16
DILUPBiCG:  Solving for epsilon, Initial residual = 0.00804483, Final residual = 1.69127e-06, No Iterations 3
DILUPBiCG:  Solving for k, Initial residual = 0.0202625, Final residual = 0.000118873, No Iterations 2
DICPCG:  Solving for G, Initial residual = 0.00864007, Final residual = 0.000582181, No Iterations 12
Before T+T solve
BiCG:  Solving for T+T, Initial residual = 0.00180507, Final residual = 0.000159052, No Iterations 1
Tres = -1.14242
TsRes = -0.0814088
ExecutionTime = 0.23 s



Wall heat fluxes [W]
movingWall -0.238761 1.6263e-15 -0.272712 -0.511473
left 0.1037 -4.16232e-16 0.283228 0.386928
right -0.0414169 3.24361e-19 -0.0843484 -0.125765
bottom -0.0731446 0 0.0738326 0.000687986
movingWall2 -0.209241 2.76035e-18 0.215904 0.00666314
left2 -0.0742395 -2.65926e-15 0.213442 0.139202
right2 -0.516582 1.89566e-16 -0.601046 -1.11763
bottom2 -0.164498 0 0.1717 0.00720209
frontAndBack 0 0 0 0
sum -1.21418 -1.25654e-15 4.5651e-07 -1.21418


Wall heat fluxes [W]
topAndBottom 0 0 0 0
left 0 0 0 0
right -0.0814088 0 0 -0.0814088
frontAndBack 0 0 0 0
sum -0.0814088 0 0 -0.0814088

Time = 42

DILUPBiCG:  Solving for Ux, Initial residual = 0.0091744, Final residual = 2.07622e-06, No Iterations 2
DILUPBiCG:  Solving for Uy, Initial residual = 0.0122738, Final residual = 6.00061e-06, No Iterations 2
DICPCG:  Solving for p_rgh, Initial residual = 0.0362502, Final residual = 0.000156443, No Iterations 6
time step continuity errors : sum local = 0.00023693, global = -1.1382e-17, cumulative = -4.11392e-16
DILUPBiCG:  Solving for epsilon, Initial residual = 0.00788947, Final residual = 1.66607e-06, No Iterations 3
DILUPBiCG:  Solving for k, Initial residual = 0.0194786, Final residual = 0.000192729, No Iterations 2
DICPCG:  Solving for G, Initial residual = 0.00820869, Final residual = 0.000554531, No Iterations 12
Before T+T solve
BiCG:  Solving for T+T, Initial residual = 0.00176762, Final residual = 0.000156213, No Iterations 1
Tres = -1.11495
TsRes = -0.0794034
ExecutionTime = 0.23 s



Wall heat fluxes [W]
movingWall -0.233977 -1.30104e-15 -0.271631 -0.505608
left 0.107618 -1.7343e-16 0.284306 0.391924
right -0.041449 3.86607e-16 -0.0862216 -0.127671
bottom -0.0728174 0 0.0735468 0.000729371
movingWall2 -0.205717 -6.74483e-16 0.212058 0.0063408
left2 -0.0722488 -7.19277e-16 0.21274 0.140491
right2 -0.506544 3.03306e-15 -0.591575 -1.09812
bottom2 -0.159771 0 0.166778 0.00700672
frontAndBack 0 0 0 0
sum -1.18491 5.51429e-16 4.22816e-07 -1.18491


Wall heat fluxes [W]
topAndBottom 0 0 0 0
left 0 0 0 0
right -0.0794034 0 0 -0.0794034
frontAndBack 0 0 0 0
sum -0.0794034 0 0 -0.0794034

Time = 43

DILUPBiCG:  Solving for Ux, Initial residual = 0.00891973, Final residual = 2.00708e-06, No Iterations 2
DILUPBiCG:  Solving for Uy, Initial residual = 0.0117772, Final residual = 5.48831e-06, No Iterations 2
DICPCG:  Solving for p_rgh, Initial residual = 0.0337021, Final residual = 0.000173623, No Iterations 6
time step continuity errors : sum local = 0.000279752, global = 2.96462e-17, cumulative = -3.81746e-16
DILUPBiCG:  Solving for epsilon, Initial residual = 0.00775461, Final residual = 1.57546e-06, No Iterations 3
DILUPBiCG:  Solving for k, Initial residual = 0.018814, Final residual = 7.82976e-06, No Iterations 3
DICPCG:  Solving for G, Initial residual = 0.00782757, Final residual = 0.000538844, No Iterations 12
Before T+T solve
BiCG:  Solving for T+T, Initial residual = 0.00173408, Final residual = 0.000152891, No Iterations 1
Tres = -1.08853
TsRes = -0.0774464
ExecutionTime = 0.24 s



Wall heat fluxes [W]
movingWall -0.229704 6.50521e-16 -0.27055 -0.500254
left 0.111252 -1.42213e-15 0.285384 0.396636
right -0.041465 7.97689e-17 -0.0880118 -0.129477
bottom -0.0724181 0 0.0731783 0.000760209
movingWall2 -0.202467 5.68149e-18 0.208487 0.00602019
left2 -0.070348 -6.36097e-16 0.212109 0.141761
right2 -0.49655 1.89566e-15 -0.582473 -1.07902
bottom2 -0.15505 0 0.161878 0.00682823
frontAndBack 0 0 0 0
sum -1.15675 5.73409e-16 3.68868e-07 -1.15675


Wall heat fluxes [W]
topAndBottom 0 0 0 0
left 0 0 0 0
right -0.0774464 0 0 -0.0774464
frontAndBack 0 0 0 0
sum -0.0774464 0 0 -0.0774464

Time = 44

DILUPBiCG:  Solving for Ux, Initial residual = 0.00873223, Final residual = 1.9629e-06, No Iterations 2
DILUPBiCG:  Solving for Uy, Initial residual = 0.0113851, Final residual = 5.0129e-06, No Iterations 2
DICPCG:  Solving for p_rgh, Initial residual = 0.0316771, Final residual = 0.000208742, No Iterations 6
time step continuity errors : sum local = 0.000342694, global = 5.09543e-18, cumulative = -3.7665e-16
DILUPBiCG:  Solving for epsilon, Initial residual = 0.00761291, Final residual = 1.46246e-06, No Iterations 3
DILUPBiCG:  Solving for k, Initial residual = 0.0182099, Final residual = 7.08638e-06, No Iterations 3
DICPCG:  Solving for G, Initial residual = 0.00747276, Final residual = 0.000515763, No Iterations 12
Before T+T solve
BiCG:  Solving for T+T, Initial residual = 0.00169956, Final residual = 0.00014918, No Iterations 1
Tres = -1.06292
TsRes = -0.0755365
ExecutionTime = 0.24 s



Wall heat fluxes [W]
movingWall -0.225729 2.60209e-15 -0.269477 -0.495206
left 0.114521 -2.15053e-15 0.286454 0.400976
right -0.0414745 -1.54236e-16 -0.089718 -0.131193
bottom -0.0719347 0 0.0727409 0.000806152
movingWall2 -0.199426 1.36089e-15 0.205203 0.0057769
left2 -0.068557 -3.94516e-15 0.211543 0.142986
right2 -0.486612 2.46436e-15 -0.573727 -1.06034
bottom2 -0.150283 0 0.156981 0.00669831
frontAndBack 0 0 0 0
sum -1.1295 1.77402e-16 3.38122e-07 -1.12949


Wall heat fluxes [W]
topAndBottom 0 0 0 0
left 0 0 0 0
right -0.0755365 0 0 -0.0755365
frontAndBack 0 0 0 0
sum -0.0755365 0 0 -0.0755365

Time = 45

DILUPBiCG:  Solving for Ux, Initial residual = 0.00855045, Final residual = 1.93027e-06, No Iterations 2
DILUPBiCG:  Solving for Uy, Initial residual = 0.0111024, Final residual = 4.57809e-06, No Iterations 2
DICPCG:  Solving for p_rgh, Initial residual = 0.0286206, Final residual = 0.000260816, No Iterations 6
time step continuity errors : sum local = 0.000429999, global = 7.6233e-17, cumulative = -3.00418e-16
DILUPBiCG:  Solving for epsilon, Initial residual = 0.0075432, Final residual = 1.42508e-06, No Iterations 3
DILUPBiCG:  Solving for k, Initial residual = 0.0176939, Final residual = 6.78167e-06, No Iterations 3
DICPCG:  Solving for G, Initial residual = 0.00718839, Final residual = 0.000498061, No Iterations 12
Before T+T solve
BiCG:  Solving for T+T, Initial residual = 0.00166591, Final residual = 0.000145971, No Iterations 1
Tres = -1.03822
TsRes = -0.073673
ExecutionTime = 0.24 s



Wall heat fluxes [W]
movingWall -0.222109 4.22839e-15 -0.268401 -0.49051
left 0.117467 8.32464e-16 0.287529 0.404996
right -0.0414818 4.67399e-16 -0.0913429 -0.132825
bottom -0.0713758 0 0.0722153 0.000839595
movingWall2 -0.196587 1.66855e-18 0.202131 0.00554387
left2 -0.0668337 -6.8055e-16 0.211053 0.14422
right2 -0.476789 3.79132e-16 -0.565255 -1.04204
bottom2 -0.145495 0 0.152071 0.00657569
frontAndBack 0 0 0 0
sum -1.1032 5.2285e-15 3.12132e-07 -1.1032


Wall heat fluxes [W]
topAndBottom 0 0 0 0
left 0 0 0 0
right -0.073673 0 0 -0.073673
frontAndBack 0 0 0 0
sum -0.073673 0 0 -0.073673

Time = 46

DILUPBiCG:  Solving for Ux, Initial residual = 0.00839867, Final residual = 1.90973e-06, No Iterations 2
DILUPBiCG:  Solving for Uy, Initial residual = 0.0109237, Final residual = 4.24244e-06, No Iterations 2
DICPCG:  Solving for p_rgh, Initial residual = 0.0271507, Final residual = 0.00015354, No Iterations 11
time step continuity errors : sum local = 0.000191842, global = 5.29396e-18, cumulative = -2.95124e-16
DILUPBiCG:  Solving for epsilon, Initial residual = 0.0075122, Final residual = 1.43433e-06, No Iterations 3
DILUPBiCG:  Solving for k, Initial residual = 0.017272, Final residual = 6.74671e-06, No Iterations 3
DICPCG:  Solving for G, Initial residual = 0.0069284, Final residual = 0.000478357, No Iterations 12
Before T+T solve
BiCG:  Solving for T+T, Initial residual = 0.00163409, Final residual = 0.000142696, No Iterations 1
Tres = -1.01442
TsRes = -0.0718549
ExecutionTime = 0.25 s



Wall heat fluxes [W]
movingWall -0.218813 -3.90313e-15 -0.267325 -0.486137
left 0.120117 2.67082e-15 0.288603 0.40872
right -0.0414804 1.57811e-16 -0.0929017 -0.134382
bottom -0.0707595 0 0.0716234 0.000863848
movingWall2 -0.193927 -3.45604e-16 0.199272 0.00534544
left2 -0.0651496 1.83096e-15 0.210612 0.145462
right2 -0.467118 1.32696e-15 -0.557037 -1.02415
bottom2 -0.140687 0 0.147153 0.00646537
frontAndBack 0 0 0 0
sum -1.07782 1.73782e-15 3.00981e-07 -1.07782


Wall heat fluxes [W]
topAndBottom 0 0 0 0
left 0 0 0 0
right -0.0718549 0 0 -0.0718549
frontAndBack 0 0 0 0
sum -0.0718549 0 0 -0.0718549

Time = 47

DILUPBiCG:  Solving for Ux, Initial residual = 0.00826952, Final residual = 1.88651e-06, No Iterations 2
DILUPBiCG:  Solving for Uy, Initial residual = 0.0107558, Final residual = 4.14968e-06, No Iterations 2
DICPCG:  Solving for p_rgh, Initial residual = 0.026677, Final residual = 0.000196111, No Iterations 6
time step continuity errors : sum local = 0.00027418, global = 4.08296e-17, cumulative = -2.54294e-16
DILUPBiCG:  Solving for epsilon, Initial residual = 0.00754334, Final residual = 1.51686e-06, No Iterations 3
DILUPBiCG:  Solving for k, Initial residual = 0.0170082, Final residual = 7.06986e-06, No Iterations 3
DICPCG:  Solving for G, Initial residual = 0.00669587, Final residual = 0.00046066, No Iterations 12
Before T+T solve
BiCG:  Solving for T+T, Initial residual = 0.00160856, Final residual = 0.000139933, No Iterations 1
Tres = -0.991537
TsRes = -0.0700816
ExecutionTime = 0.25 s



Wall heat fluxes [W]
movingWall -0.215812 2.60209e-15 -0.266251 -0.482064
left 0.122489 -1.04058e-15 0.289675 0.412163
right -0.0414666 -1.56361e-16 -0.0944036 -0.13587
bottom -0.070085 0 0.0709803 0.000895238
movingWall2 -0.191417 -5.12815e-16 0.196592 0.00517499
left2 -0.0634985 -1.71882e-16 0.210206 0.146707
right2 -0.457739 5.68698e-16 -0.549036 -1.00677
bottom2 -0.135842 0 0.142238 0.00639612
frontAndBack 0 0 0 0
sum -1.05337 1.28915e-15 2.88684e-07 -1.05337


Wall heat fluxes [W]
topAndBottom 0 0 0 0
left 0 0 0 0
right -0.0700816 0 0 -0.0700816
frontAndBack 0 0 0 0
sum -0.0700816 0 0 -0.0700816

Time = 48

DILUPBiCG:  Solving for Ux, Initial residual = 0.00815082, Final residual = 1.85899e-06, No Iterations 2
DILUPBiCG:  Solving for Uy, Initial residual = 0.0106344, Final residual = 4.04642e-06, No Iterations 2
DICPCG:  Solving for p_rgh, Initial residual = 0.0268677, Final residual = 0.000207938, No Iterations 6
time step continuity errors : sum local = 0.000297117, global = 1.81315e-17, cumulative = -2.36162e-16
DILUPBiCG:  Solving for epsilon, Initial residual = 0.00756895, Final residual = 7.14826e-05, No Iterations 2
DILUPBiCG:  Solving for k, Initial residual = 0.0169398, Final residual = 6.56582e-06, No Iterations 3
DICPCG:  Solving for G, Initial residual = 0.00650952, Final residual = 0.000443338, No Iterations 12
Before T+T solve
BiCG:  Solving for T+T, Initial residual = 0.0015847, Final residual = 0.0001378, No Iterations 1
Tres = -0.970642
TsRes = -0.0683524
ExecutionTime = 0.25 s



Wall heat fluxes [W]
movingWall -0.213065 -9.75782e-16 -0.265174 -0.478239
left 0.124608 5.2029e-16 0.290751 0.415359
right -0.0414437 3.12865e-16 -0.0958562 -0.1373
bottom -0.0693708 0 0.0702791 0.000908296
movingWall2 -0.189041 1.71734e-15 0.194084 0.00504336
left2 -0.061878 8.94522e-16 0.209828 0.14795
right2 -0.449792 1.89566e-16 -0.541204 -0.990996
bottom2 -0.130947 0 0.137293 0.00634595
frontAndBack 0 0 0 0
sum -1.03093 2.6588e-15 2.86292e-07 -1.03093


Wall heat fluxes [W]
topAndBottom 0 0 0 0
left 0 0 0 0
right -0.0683524 0 0 -0.0683524
frontAndBack 0 0 0 0
sum -0.0683524 0 0 -0.0683524

Time = 49

DILUPBiCG:  Solving for Ux, Initial residual = 0.00803762, Final residual = 1.79668e-06, No Iterations 2
DILUPBiCG:  Solving for Uy, Initial residual = 0.0104842, Final residual = 3.9954e-06, No Iterations 2
DICPCG:  Solving for p_rgh, Initial residual = 0.0265671, Final residual = 0.000251816, No Iterations 6
time step continuity errors : sum local = 0.000380418, global = 2.35581e-17, cumulative = -2.12604e-16
DILUPBiCG:  Solving for epsilon, Initial residual = 0.00757441, Final residual = 6.54088e-05, No Iterations 2
DILUPBiCG:  Solving for k, Initial residual = 0.0168537, Final residual = 6.22455e-06, No Iterations 3
DICPCG:  Solving for G, Initial residual = 0.00635232, Final residual = 0.000425941, No Iterations 12
Before T+T solve
BiCG:  Solving for T+T, Initial residual = 0.00155724, Final residual = 0.00013545, No Iterations 1
Tres = -0.95105
TsRes = -0.0666656
ExecutionTime = 0.26 s



Wall heat fluxes [W]
movingWall -0.210536 0 -0.264096 -0.474632
left 0.126508 -1.14464e-15 0.291827 0.418335
right -0.0414066 2.34715e-16 -0.0972825 -0.138689
bottom -0.0686324 0 0.0695519 0.00091951
movingWall2 -0.186769 -6.8431e-16 0.19171 0.00494114
left2 -0.0602809 1.06784e-15 0.209472 0.149191
right2 -0.44271 7.58264e-16 -0.533502 -0.976212
bottom2 -0.125972 0 0.13232 0.00634824
frontAndBack 0 0 0 0
sum -1.0098 2.31871e-16 2.88573e-07 -1.0098


Wall heat fluxes [W]
topAndBottom 0 0 0 0
left 0 0 0 0
right -0.0666656 0 0 -0.0666656
frontAndBack 0 0 0 0
sum -0.0666656 0 0 -0.0666656

Time = 50

DILUPBiCG:  Solving for Ux, Initial residual = 0.00794624, Final residual = 1.76591e-06, No Iterations 2
DILUPBiCG:  Solving for Uy, Initial residual = 0.0104064, Final residual = 3.81901e-06, No Iterations 2
DICPCG:  Solving for p_rgh, Initial residual = 0.0270513, Final residual = 0.000176153, No Iterations 7
time step continuity errors : sum local = 0.000310911, global = 1.45385e-16, cumulative = -6.7219e-17
DILUPBiCG:  Solving for epsilon, Initial residual = 0.00756793, Final residual = 6.08272e-05, No Iterations 2
DILUPBiCG:  Solving for k, Initial residual = 0.0167191, Final residual = 6.65368e-06, No Iterations 3
DICPCG:  Solving for G, Initial residual = 0.00623071, Final residual = 0.00040228, No Iterations 12
Before T+T solve
BiCG:  Solving for T+T, Initial residual = 0.00152872, Final residual = 0.000132642, No Iterations 1
Tres = -0.931629
TsRes = -0.0650194
ExecutionTime = 0.26 s



Wall heat fluxes [W]
movingWall -0.208193 2.27682e-15 -0.26302 -0.471213
left 0.128224 6.9372e-16 0.292902 0.421127
right -0.041358 3.8978e-16 -0.0986843 -0.140042
bottom -0.0678812 0 0.0688018 0.000920625
movingWall2 -0.184591 8.60787e-16 0.18946 0.00486894
left2 -0.0587125 2.01009e-15 0.209157 0.150444
right2 -0.435475 3.79132e-15 -0.525879 -0.961354
bottom2 -0.120874 0 0.127263 0.00638876
frontAndBack 0 0 0 0
sum -0.98886 1.00225e-14 2.97942e-07 -0.98886


Wall heat fluxes [W]
topAndBottom 0 0 0 0
left 0 0 0 0
right -0.0650194 0 0 -0.0650194
frontAndBack 0 0 0 0
sum -0.0650194 0 0 -0.0650194

Time = 51

DILUPBiCG:  Solving for Ux, Initial residual = 0.00780815, Final residual = 1.70231e-06, No Iterations 2
DILUPBiCG:  Solving for Uy, Initial residual = 0.0102675, Final residual = 3.85569e-06, No Iterations 2
DICPCG:  Solving for p_rgh, Initial residual = 0.0278556, Final residual = 0.000221574, No Iterations 7
time step continuity errors : sum local = 0.000386404, global = 3.63959e-18, cumulative = -6.35794e-17
DILUPBiCG:  Solving for epsilon, Initial residual = 0.00760273, Final residual = 5.66792e-05, No Iterations 2
DILUPBiCG:  Solving for k, Initial residual = 0.016707, Final residual = 1.06349e-05, No Iterations 3
DICPCG:  Solving for G, Initial residual = 0.00613683, Final residual = 0.000357366, No Iterations 12
Before T+T solve
BiCG:  Solving for T+T, Initial residual = 0.00150392, Final residual = 0.000129776, No Iterations 1
Tres = -0.912491
TsRes = -0.0634133
ExecutionTime = 0.26 s



Wall heat fluxes [W]
movingWall -0.206012 -9.75782e-16 -0.261945 -0.467958
left 0.129794 1.14464e-15 0.293975 0.42377
right -0.0412974 -3.91623e-16 -0.100077 -0.141375
bottom -0.0671349 0 0.0680474 0.000912502
movingWall2 -0.182499 3.41511e-16 0.187321 0.00482192
left2 -0.0571752 -3.85164e-16 0.208879 0.151704
right2 -0.428272 1.32696e-15 -0.51829 -0.946562
bottom2 -0.115631 0 0.122091 0.00645919
frontAndBack 0 0 0 0
sum -0.968228 1.06054e-15 3.08181e-07 -0.968227


Wall heat fluxes [W]
topAndBottom 0 0 0 0
left 0 0 0 0
right -0.0634133 0 0 -0.0634133
frontAndBack 0 0 0 0
sum -0.0634133 0 0 -0.0634133

Time = 52

DILUPBiCG:  Solving for Ux, Initial residual = 0.00770568, Final residual = 1.65891e-06, No Iterations 2
DILUPBiCG:  Solving for Uy, Initial residual = 0.0101613, Final residual = 4.3895e-06, No Iterations 2
DICPCG:  Solving for p_rgh, Initial residual = 0.0287897, Final residual = 0.000241776, No Iterations 7
time step continuity errors : sum local = 0.000413121, global = -3.30872e-18, cumulative = -6.68882e-17
DILUPBiCG:  Solving for epsilon, Initial residual = 0.00766095, Final residual = 5.36506e-05, No Iterations 2
[...]
time step continuity errors : sum local = 2.07101e-10, global = -2.43108e-17, cumulative = -2.53183e-15
DILUPBiCG:  Solving for epsilon, Initial residual = 7.40644e-09, Final residual = 2.34588e-11, No Iterations 2
DILUPBiCG:  Solving for k, Initial residual = 1.21855e-08, Final residual = 2.9233e-12, No Iterations 3
DICPCG:  Solving for G, Initial residual = 1.79636e-08, Final residual = 1.27818e-09, No Iterations 12
Before T+T solve
BiCG:  Solving for T+T, Initial residual = 1.11671e-08, Final residual = 3.4167e-10, No Iterations 1
Tres = -6.68086e-06
TsRes = -5.82077e-12
ExecutionTime = 3.3 s



Wall heat fluxes [W]
movingWall -0.124795 -4.87891e-16 -0.21375 -0.338545
left 0.2036 8.32464e-16 0.34206 0.54566
right -0.0333822 5.6306e-16 -0.173733 -0.207115
bottom -0.0454229 0 0.0454229 1.19323e-09
movingWall2 -0.000668089 3.84891e-17 0.000668114 2.55945e-08
left2 0.0433908 5.23911e-16 0.163724 0.207115
right2 -0.0561771 -1.18479e-17 -0.150944 -0.207121
bottom2 0.0134479 0 -0.0134479 2.30328e-08
frontAndBack 0 0 0 0
sum -6.66031e-06 1.45818e-15 1.45866e-12 -6.66031e-06


Wall heat fluxes [W]
topAndBottom 0 0 0 0
left 0 0 0 0
right -5.82077e-12 0 0 -5.82077e-12
frontAndBack 0 0 0 0
sum -5.82077e-12 0 0 -5.82077e-12

Time = 989

DILUPBiCG:  Solving for Ux, Initial residual = 1.25581e-08, Final residual = 1.01442e-10, No Iterations 1
DILUPBiCG:  Solving for Uy, Initial residual = 9.50061e-09, Final residual = 5.15526e-11, No Iterations 1
DICPCG:  Solving for p_rgh, Initial residual = 3.24058e-08, Final residual = 1.41388e-10, No Iterations 6
time step continuity errors : sum local = 2.26344e-10, global = 5.29396e-18, cumulative = -2.52654e-15
DILUPBiCG:  Solving for epsilon, Initial residual = 7.31709e-09, Final residual = 2.31644e-11, No Iterations 2
DILUPBiCG:  Solving for k, Initial residual = 1.20388e-08, Final residual = 2.88787e-12, No Iterations 3
DICPCG:  Solving for G, Initial residual = 1.77444e-08, Final residual = 1.26267e-09, No Iterations 12
Before T+T solve
BiCG:  Solving for T+T, Initial residual = 1.10314e-08, Final residual = 3.3752e-10, No Iterations 1
Tres = -6.59966e-06
TsRes = -5.72982e-12
ExecutionTime = 3.3 s



Wall heat fluxes [W]
movingWall -0.124795 0 -0.21375 -0.338545
left 0.2036 -6.9372e-17 0.34206 0.54566
right -0.0333822 8.00762e-17 -0.173733 -0.207115
bottom -0.0454229 0 0.0454229 1.17944e-09
movingWall2 -0.000668071 -5.81282e-17 0.000668097 2.52834e-08
left2 0.0433908 2.9631e-16 0.163724 0.207115
right2 -0.0561771 -5.92394e-17 -0.150944 -0.207121
bottom2 0.0134479 0 -0.0134479 2.27529e-08
frontAndBack 0 0 0 0
sum -6.57936e-06 1.89647e-16 1.29112e-12 -6.57936e-06


Wall heat fluxes [W]
topAndBottom 0 0 0 0
left 0 0 0 0
right -5.72982e-12 0 0 -5.72982e-12
frontAndBack 0 0 0 0
sum -5.72982e-12 0 0 -5.72982e-12

Time = 990

DILUPBiCG:  Solving for Ux, Initial residual = 1.24029e-08, Final residual = 1.00331e-10, No Iterations 1
DILUPBiCG:  Solving for Uy, Initial residual = 9.39004e-09, Final residual = 5.10813e-11, No Iterations 1
DICPCG:  Solving for p_rgh, Initial residual = 3.20638e-08, Final residual = 1.79711e-10, No Iterations 6
time step continuity errors : sum local = 3.17116e-10, global = -2.53117e-18, cumulative = -2.52907e-15
DILUPBiCG:  Solving for epsilon, Initial residual = 7.22908e-09, Final residual = 2.28832e-11, No Iterations 2
DILUPBiCG:  Solving for k, Initial residual = 1.1895e-08, Final residual = 2.8541e-12, No Iterations 3
DICPCG:  Solving for G, Initial residual = 1.75289e-08, Final residual = 1.24724e-09, No Iterations 12
Before T+T solve
BiCG:  Solving for T+T, Initial residual = 1.08976e-08, Final residual = 3.33427e-10, No Iterations 1
Tres = -6.51944e-06
TsRes = -5.52518e-12
ExecutionTime = 3.31 s



Wall heat fluxes [W]
movingWall -0.124795 2.11419e-15 -0.21375 -0.338545
left 0.2036 -9.01836e-16 0.34206 0.54566
right -0.0333822 8.00788e-17 -0.173733 -0.207115
bottom -0.0454229 0 0.0454229 1.1666e-09
movingWall2 -0.000668054 -5.95682e-17 0.000668079 2.4976e-08
left2 0.0433908 6.83585e-17 0.163724 0.207115
right2 -0.056177 2.36957e-17 -0.150944 -0.207121
bottom2 0.013448 0 -0.0134479 2.24762e-08
frontAndBack 0 0 0 0
sum -6.49938e-06 1.32492e-15 6.83035e-13 -6.49938e-06


Wall heat fluxes [W]
topAndBottom 0 0 0 0
left 0 0 0 0
right -5.52518e-12 0 0 -5.52518e-12
frontAndBack 0 0 0 0
sum -5.52518e-12 0 0 -5.52518e-12

Time = 991

DILUPBiCG:  Solving for Ux, Initial residual = 1.22541e-08, Final residual = 9.92504e-11, No Iterations 1
DILUPBiCG:  Solving for Uy, Initial residual = 9.27981e-09, Final residual = 5.06185e-11, No Iterations 1
DICPCG:  Solving for p_rgh, Initial residual = 3.17226e-08, Final residual = 2.45989e-10, No Iterations 6
time step continuity errors : sum local = 4.57373e-10, global = 3.38979e-17, cumulative = -2.49517e-15
DILUPBiCG:  Solving for epsilon, Initial residual = 7.14244e-09, Final residual = 2.26104e-11, No Iterations 2
DILUPBiCG:  Solving for k, Initial residual = 1.17532e-08, Final residual = 2.821e-12, No Iterations 3
DICPCG:  Solving for G, Initial residual = 1.73163e-08, Final residual = 1.23212e-09, No Iterations 12
Before T+T solve
BiCG:  Solving for T+T, Initial residual = 1.07655e-08, Final residual = 3.29386e-10, No Iterations 1
Tres = -6.44018e-06
TsRes = -5.35465e-12
ExecutionTime = 3.31 s



Wall heat fluxes [W]
movingWall -0.124795 -3.25261e-16 -0.21375 -0.338545
left 0.2036 1.38744e-15 0.34206 0.54566
right -0.0333822 -8.05364e-17 -0.173733 -0.207115
bottom -0.0454229 0 0.0454229 1.15482e-09
movingWall2 -0.000668038 1.3099e-17 0.000668062 2.46726e-08
left2 0.0433908 -2.50656e-16 0.163724 0.207115
right2 -0.056177 1.18479e-17 -0.150944 -0.207121
bottom2 0.013448 0 -0.0134479 2.22032e-08
frontAndBack 0 0 0 0
sum -6.42037e-06 7.55934e-16 1.18246e-12 -6.42037e-06


Wall heat fluxes [W]
topAndBottom 0 0 0 0
left 0 0 0 0
right -5.35465e-12 0 0 -5.35465e-12
frontAndBack 0 0 0 0
sum -5.35465e-12 0 0 -5.35465e-12

Time = 992

DILUPBiCG:  Solving for Ux, Initial residual = 1.21062e-08, Final residual = 9.8106e-11, No Iterations 1
DILUPBiCG:  Solving for Uy, Initial residual = 9.16804e-09, Final residual = 5.00486e-11, No Iterations 1
DICPCG:  Solving for p_rgh, Initial residual = 3.13724e-08, Final residual = 2.59809e-10, No Iterations 11
time step continuity errors : sum local = 3.34282e-10, global = 4.95977e-17, cumulative = -2.44557e-15
DILUPBiCG:  Solving for epsilon, Initial residual = 7.05372e-09, Final residual = 2.23572e-11, No Iterations 2
DILUPBiCG:  Solving for k, Initial residual = 1.15995e-08, Final residual = 2.78221e-12, No Iterations 3
DICPCG:  Solving for G, Initial residual = 1.71065e-08, Final residual = 1.21716e-09, No Iterations 12
Before T+T solve
BiCG:  Solving for T+T, Initial residual = 1.06338e-08, Final residual = 3.25351e-10, No Iterations 1
Tres = -6.36192e-06
TsRes = -5.24096e-12
ExecutionTime = 3.31 s



Wall heat fluxes [W]
movingWall -0.124795 2.92735e-15 -0.21375 -0.338545
left 0.2036 2.08116e-15 0.34206 0.54566
right -0.0333822 -8.07609e-17 -0.173733 -0.207115
bottom -0.0454229 0 0.0454229 1.13775e-09
movingWall2 -0.000668021 -3.77649e-17 0.000668045 2.43728e-08
left2 0.0433908 2.27754e-16 0.163724 0.207115
right2 -0.0561769 2.36957e-16 -0.150944 -0.207121
bottom2 0.013448 0 -0.013448 2.19334e-08
frontAndBack 0 0 0 0
sum -6.34235e-06 5.35469e-15 1.65114e-12 -6.34235e-06


Wall heat fluxes [W]
topAndBottom 0 0 0 0
left 0 0 0 0
right -5.24096e-12 0 0 -5.24096e-12
frontAndBack 0 0 0 0
sum -5.24096e-12 0 0 -5.24096e-12

Time = 993

DILUPBiCG:  Solving for Ux, Initial residual = 1.19718e-08, Final residual = 9.67987e-11, No Iterations 1
DILUPBiCG:  Solving for Uy, Initial residual = 9.04665e-09, Final residual = 4.91658e-11, No Iterations 1
DICPCG:  Solving for p_rgh, Initial residual = 3.0831e-08, Final residual = 1.25576e-10, No Iterations 6
time step continuity errors : sum local = 1.94817e-10, global = -4.6074e-17, cumulative = -2.49165e-15
DILUPBiCG:  Solving for epsilon, Initial residual = 6.96714e-09, Final residual = 2.20674e-11, No Iterations 2
DILUPBiCG:  Solving for k, Initial residual = 1.14627e-08, Final residual = 2.74991e-12, No Iterations 3
DICPCG:  Solving for G, Initial residual = 1.68982e-08, Final residual = 1.20238e-09, No Iterations 12
Before T+T solve
BiCG:  Solving for T+T, Initial residual = 1.05047e-08, Final residual = 3.21404e-10, No Iterations 1
Tres = -6.2846e-06
TsRes = -5.16138e-12
ExecutionTime = 3.32 s



Wall heat fluxes [W]
movingWall -0.124795 -2.76472e-15 -0.21375 -0.338545
left 0.2036 1.38744e-15 0.34206 0.54566
right -0.0333822 2.41479e-16 -0.173733 -0.207115
bottom -0.0454229 0 0.0454229 1.1224e-09
movingWall2 -0.000668005 4.50293e-17 0.000668029 2.40765e-08
left2 0.0433909 1.59485e-16 0.163724 0.207115
right2 -0.0561769 9.4783e-17 -0.150944 -0.207121
bottom2 0.013448 0 -0.013448 2.16667e-08
frontAndBack 0 0 0 0
sum -6.26527e-06 -8.365e-16 1.24514e-12 -6.26527e-06


Wall heat fluxes [W]
topAndBottom 0 0 0 0
left 0 0 0 0
right -5.16138e-12 0 0 -5.16138e-12
frontAndBack 0 0 0 0
sum -5.16138e-12 0 0 -5.16138e-12

Time = 994

DILUPBiCG:  Solving for Ux, Initial residual = 1.18133e-08, Final residual = 9.54249e-11, No Iterations 1
DILUPBiCG:  Solving for Uy, Initial residual = 8.93711e-09, Final residual = 4.84948e-11, No Iterations 1
DICPCG:  Solving for p_rgh, Initial residual = 3.04837e-08, Final residual = 1.33002e-10, No Iterations 6
time step continuity errors : sum local = 2.12918e-10, global = -7.304e-18, cumulative = -2.49895e-15
DILUPBiCG:  Solving for epsilon, Initial residual = 6.88309e-09, Final residual = 2.17904e-11, No Iterations 2
DILUPBiCG:  Solving for k, Initial residual = 1.13248e-08, Final residual = 2.71658e-12, No Iterations 3
DICPCG:  Solving for G, Initial residual = 1.66918e-08, Final residual = 1.18775e-09, No Iterations 12
Before T+T solve
BiCG:  Solving for T+T, Initial residual = 1.03771e-08, Final residual = 3.175e-10, No Iterations 1
Tres = -6.20821e-06
TsRes = -5.02496e-12
ExecutionTime = 3.32 s



Wall heat fluxes [W]
movingWall -0.124795 9.75782e-16 -0.21375 -0.338545
left 0.2036 9.01836e-16 0.34206 0.54566
right -0.0333822 -1.60781e-16 -0.173733 -0.207115
bottom -0.0454229 0 0.0454229 1.10954e-09
movingWall2 -0.000667988 2.10906e-17 0.000668012 2.37838e-08
left2 0.0433909 -1.59561e-16 0.163724 0.207115
right2 -0.0561769 2.13262e-16 -0.150944 -0.207121
bottom2 0.013448 0 -0.013448 2.14033e-08
frontAndBack 0 0 0 0
sum -6.18912e-06 1.79163e-15 1.38563e-12 -6.18912e-06


Wall heat fluxes [W]
topAndBottom 0 0 0 0
left 0 0 0 0
right -5.02496e-12 0 0 -5.02496e-12
frontAndBack 0 0 0 0
sum -5.02496e-12 0 0 -5.02496e-12

Time = 995

DILUPBiCG:  Solving for Ux, Initial residual = 1.16673e-08, Final residual = 9.43807e-11, No Iterations 1
DILUPBiCG:  Solving for Uy, Initial residual = 8.8331e-09, Final residual = 4.80516e-11, No Iterations 1
DICPCG:  Solving for p_rgh, Initial residual = 3.0162e-08, Final residual = 1.69051e-10, No Iterations 6
time step continuity errors : sum local = 2.98307e-10, global = -6.88214e-18, cumulative = -2.50583e-15
DILUPBiCG:  Solving for epsilon, Initial residual = 6.8003e-09, Final residual = 2.15259e-11, No Iterations 2
DILUPBiCG:  Solving for k, Initial residual = 1.11895e-08, Final residual = 2.68482e-12, No Iterations 3
DICPCG:  Solving for G, Initial residual = 1.64894e-08, Final residual = 1.17328e-09, No Iterations 12
Before T+T solve
BiCG:  Solving for T+T, Initial residual = 1.02512e-08, Final residual = 3.1365e-10, No Iterations 1
Tres = -6.13275e-06
TsRes = -4.88853e-12
ExecutionTime = 3.32 s



Wall heat fluxes [W]
movingWall -0.124795 2.11419e-15 -0.21375 -0.338545
left 0.2036 -1.80367e-15 0.34206 0.54566
right -0.0333822 1.60043e-16 -0.173733 -0.207115
bottom -0.0454229 0 0.0454229 1.09738e-09
movingWall2 -0.000667972 1.16288e-17 0.000667996 2.34947e-08
left2 0.0433909 -2.2798e-17 0.163724 0.207115
right2 -0.0561768 2.36957e-17 -0.150944 -0.207121
bottom2 0.013448 0 -0.013448 2.11432e-08
frontAndBack 0 0 0 0
sum -6.11389e-06 4.83092e-16 1.68877e-12 -6.11388e-06


Wall heat fluxes [W]
topAndBottom 0 0 0 0
left 0 0 0 0
right -4.88853e-12 0 0 -4.88853e-12
frontAndBack 0 0 0 0
sum -4.88853e-12 0 0 -4.88853e-12

Time = 996

DILUPBiCG:  Solving for Ux, Initial residual = 1.15273e-08, Final residual = 9.33638e-11, No Iterations 1
DILUPBiCG:  Solving for Uy, Initial residual = 8.72937e-09, Final residual = 4.7616e-11, No Iterations 1
DICPCG:  Solving for p_rgh, Initial residual = 2.9841e-08, Final residual = 2.31399e-10, No Iterations 6
time step continuity errors : sum local = 4.30244e-10, global = -7.86235e-17, cumulative = -2.58446e-15
DILUPBiCG:  Solving for epsilon, Initial residual = 6.7188e-09, Final residual = 2.12693e-11, No Iterations 2
DILUPBiCG:  Solving for k, Initial residual = 1.10561e-08, Final residual = 2.65367e-12, No Iterations 3
DICPCG:  Solving for G, Initial residual = 1.62888e-08, Final residual = 1.15905e-09, No Iterations 12
Before T+T solve
BiCG:  Solving for T+T, Initial residual = 1.0127e-08, Final residual = 3.09848e-10, No Iterations 1
Tres = -6.05819e-06
TsRes = -4.79758e-12
ExecutionTime = 3.33 s



Wall heat fluxes [W]
movingWall -0.124795 -1.95156e-15 -0.21375 -0.338545
left 0.2036 -2.15053e-15 0.34206 0.54566
right -0.0333822 1.60864e-16 -0.173733 -0.207115
bottom -0.0454229 0 0.0454229 1.08635e-09
movingWall2 -0.000667957 -7.27477e-19 0.00066798 2.32091e-08
left2 0.0433909 -4.10168e-16 0.163724 0.207115
right2 -0.0561768 -2.36957e-16 -0.150944 -0.207121
bottom2 0.013448 0 -0.013448 2.08861e-08
frontAndBack 0 0 0 0
sum -6.03956e-06 -4.58909e-15 1.3422e-12 -6.03956e-06


Wall heat fluxes [W]
topAndBottom 0 0 0 0
left 0 0 0 0
right -4.79758e-12 0 0 -4.79758e-12
frontAndBack 0 0 0 0
sum -4.79758e-12 0 0 -4.79758e-12

Time = 997

DILUPBiCG:  Solving for Ux, Initial residual = 1.13881e-08, Final residual = 9.22871e-11, No Iterations 1
DILUPBiCG:  Solving for Uy, Initial residual = 8.62428e-09, Final residual = 4.70802e-11, No Iterations 1
DICPCG:  Solving for p_rgh, Initial residual = 2.95116e-08, Final residual = 2.44399e-10, No Iterations 11
time step continuity errors : sum local = 3.14454e-10, global = -2.97371e-17, cumulative = -2.61419e-15
DILUPBiCG:  Solving for epsilon, Initial residual = 6.63535e-09, Final residual = 2.10311e-11, No Iterations 2
DILUPBiCG:  Solving for k, Initial residual = 1.09115e-08, Final residual = 2.61718e-12, No Iterations 3
DICPCG:  Solving for G, Initial residual = 1.60917e-08, Final residual = 1.14497e-09, No Iterations 12
Before T+T solve
BiCG:  Solving for T+T, Initial residual = 1.00031e-08, Final residual = 3.06052e-10, No Iterations 1
Tres = -5.98457e-06
TsRes = -4.66116e-12
ExecutionTime = 3.33 s



Wall heat fluxes [W]
movingWall -0.124795 4.87891e-16 -0.21375 -0.338545
left 0.2036 -2.983e-15 0.34206 0.54566
right -0.0333822 1.61284e-16 -0.173733 -0.207115
bottom -0.0454229 0 0.0454229 1.07023e-09
movingWall2 -0.000667941 -4.28418e-17 0.000667964 2.2927e-08
left2 0.0433909 2.50598e-16 0.163724 0.207115
right2 -0.0561768 7.10872e-17 -0.150944 -0.207121
bottom2 0.013448 0 -0.013448 2.06323e-08
frontAndBack 0 0 0 0
sum -5.96617e-06 -2.05498e-15 8.59575e-13 -5.96617e-06


Wall heat fluxes [W]
topAndBottom 0 0 0 0
left 0 0 0 0
right -4.66116e-12 0 0 -4.66116e-12
frontAndBack 0 0 0 0
sum -4.66116e-12 0 0 -4.66116e-12

Time = 998

DILUPBiCG:  Solving for Ux, Initial residual = 1.12617e-08, Final residual = 9.10574e-11, No Iterations 1
DILUPBiCG:  Solving for Uy, Initial residual = 8.51009e-09, Final residual = 4.62498e-11, No Iterations 1
DICPCG:  Solving for p_rgh, Initial residual = 2.90023e-08, Final residual = 1.18128e-10, No Iterations 6
time step continuity errors : sum local = 1.83262e-10, global = 5.71003e-17, cumulative = -2.55709e-15
DILUPBiCG:  Solving for epsilon, Initial residual = 6.5539e-09, Final residual = 2.07585e-11, No Iterations 2
DILUPBiCG:  Solving for k, Initial residual = 1.07829e-08, Final residual = 2.5868e-12, No Iterations 3
DICPCG:  Solving for G, Initial residual = 1.58959e-08, Final residual = 1.13104e-09, No Iterations 12
Before T+T solve
BiCG:  Solving for T+T, Initial residual = 9.88165e-09, Final residual = 3.0234e-10, No Iterations 1
Tres = -5.91184e-06
TsRes = -4.54747e-12
ExecutionTime = 3.33 s



Wall heat fluxes [W]
movingWall -0.124795 -1.6263e-16 -0.21375 -0.338545
left 0.2036 9.71208e-16 0.34206 0.54566
right -0.0333822 6.06298e-20 -0.173733 -0.207115
bottom -0.0454229 0 0.0454229 1.05579e-09
movingWall2 -0.000667925 5.07679e-18 0.000667948 2.26485e-08
left2 0.0433909 -2.27681e-17 0.163724 0.207115
right2 -0.0561767 1.18479e-16 -0.150944 -0.207121
bottom2 0.013448 0 -0.013448 2.03817e-08
frontAndBack 0 0 0 0
sum -5.89365e-06 9.09426e-16 1.23167e-12 -5.89365e-06


Wall heat fluxes [W]
topAndBottom 0 0 0 0
left 0 0 0 0
right -4.54747e-12 0 0 -4.54747e-12
frontAndBack 0 0 0 0
sum -4.54747e-12 0 0 -4.54747e-12

Time = 999

DILUPBiCG:  Solving for Ux, Initial residual = 1.11126e-08, Final residual = 8.97652e-11, No Iterations 1
DILUPBiCG:  Solving for Uy, Initial residual = 8.407e-09, Final residual = 4.56183e-11, No Iterations 1
DICPCG:  Solving for p_rgh, Initial residual = 2.86756e-08, Final residual = 1.25113e-10, No Iterations 6
time step continuity errors : sum local = 2.0029e-10, global = -5.32125e-17, cumulative = -2.61031e-15
DILUPBiCG:  Solving for epsilon, Initial residual = 6.47484e-09, Final residual = 2.0498e-11, No Iterations 2
DILUPBiCG:  Solving for k, Initial residual = 1.06531e-08, Final residual = 2.55545e-12, No Iterations 3
DICPCG:  Solving for G, Initial residual = 1.57018e-08, Final residual = 1.11733e-09, No Iterations 12
Before T+T solve
BiCG:  Solving for T+T, Initial residual = 9.7616e-09, Final residual = 2.98668e-10, No Iterations 1
Tres = -5.83998e-06
TsRes = -4.42242e-12
ExecutionTime = 3.34 s



Wall heat fluxes [W]
movingWall -0.124795 -1.6263e-16 -0.21375 -0.338545
left 0.2036 -1.87304e-15 0.34206 0.54566
right -0.0333822 3.21606e-16 -0.173733 -0.207115
bottom -0.0454229 0 0.0454229 1.04377e-09
movingWall2 -0.00066791 1.09019e-17 0.000667933 2.2373e-08
left2 0.0433909 -1.13863e-16 0.163724 0.207115
right2 -0.0561767 4.38371e-16 -0.150944 -0.207121
bottom2 0.0134481 0 -0.013448 2.01337e-08
frontAndBack 0 0 0 0
sum -5.82202e-06 -1.37866e-15 1.07755e-12 -5.82202e-06


Wall heat fluxes [W]
topAndBottom 0 0 0 0
left 0 0 0 0
right -4.42242e-12 0 0 -4.42242e-12
frontAndBack 0 0 0 0
sum -4.42242e-12 0 0 -4.42242e-12

Time = 1000

DILUPBiCG:  Solving for Ux, Initial residual = 1.09753e-08, Final residual = 8.87829e-11, No Iterations 1
DILUPBiCG:  Solving for Uy, Initial residual = 8.3092e-09, Final residual = 4.52016e-11, No Iterations 1
DICPCG:  Solving for p_rgh, Initial residual = 2.8373e-08, Final residual = 1.59025e-10, No Iterations 6
time step continuity errors : sum local = 2.80614e-10, global = 8.68953e-17, cumulative = -2.52341e-15
DILUPBiCG:  Solving for epsilon, Initial residual = 6.39695e-09, Final residual = 2.02491e-11, No Iterations 2
DILUPBiCG:  Solving for k, Initial residual = 1.05258e-08, Final residual = 2.52557e-12, No Iterations 3
DICPCG:  Solving for G, Initial residual = 1.55112e-08, Final residual = 1.10368e-09, No Iterations 12
Before T+T solve
BiCG:  Solving for T+T, Initial residual = 9.6432e-09, Final residual = 2.95046e-10, No Iterations 1
Tres = -5.769e-06
TsRes = -4.35421e-12
ExecutionTime = 3.35 s



Wall heat fluxes [W]
movingWall -0.124795 1.46367e-15 -0.21375 -0.338545
left 0.2036 3.67672e-15 0.34206 0.54566
right -0.0333822 1.3771e-19 -0.173733 -0.207115
bottom -0.0454229 0 0.0454229 1.03229e-09
movingWall2 -0.000667895 6.53995e-18 0.000667917 2.21011e-08
left2 0.0433909 -3.64698e-16 0.163724 0.207115
right2 -0.0561766 0 -0.150944 -0.207121
bottom2 0.0134481 0 -0.013448 1.98891e-08
frontAndBack 0 0 0 0
sum -5.75125e-06 4.78237e-15 8.91672e-13 -5.75125e-06


Wall heat fluxes [W]
topAndBottom 0 0 0 0
left 0 0 0 0
right -4.35421e-12 0 0 -4.35421e-12
frontAndBack 0 0 0 0
sum -4.35421e-12 0 0 -4.35421e-12

End

