/*---------------------------------------------------------------------------*\
| =========                 |                                                 |
| \\      /  F ield         | OpenFOAM Extend Project: Open source CFD        |
|  \\    /   O peration     | Version:  1.6-ext                               |
|   \\  /    A nd           | Web:      www.extend-project.de                 |
|    \\/     M anipulation  |                                                 |
\*---------------------------------------------------------------------------*/
Build  : 1.6-ext-8673d8aecf4d
Exec   : chipAirCoolingSimpleFoam
Date   : Nov 01 2011
Time   : 21:09:52
Host   : diokletian
PID    : 17715
Case   : /home/henrus/projects/ChipAirCooling/run/twoCavities/conjugateContactCavity
nProcs : 1
SigFpe : Enabling floating point exception trapping (FOAM_SIGFPE).

// * * * * * * * * * * * * * * * * * * * * * * * * * * * * * * * * * * * * * //
Create time

Create mesh for time = 0


Reading g
Reading transportProperties

Calculating field g.h

Reading field p_rgh

Reading field U

Reading field T

Reading/calculating face flux field phi

Selecting incompressible transport model Newtonian
Selecting RAS turbulence model kEpsilon
kEpsilonCoeffs
{
    Cmu             0.09;
    C1              1.44;
    C2              1.92;
    alphaEps        0.76923;
    sigmaEps        1.3;
}

Reading field kappaEff

Creating radiation model

Selecting radiationModel P1
Selecting absorptionEmissionModel constantAbsorptionEmission
Selecting scatterModel constantScatter
Reading field Tsolid

Reading solid thermal properties
Selecting thermal model multiMaterialZones
Selecting thermal model constant
Selecting thermal model constant
Selecting thermal gap model constant
Reading solid diffusivity k


Starting time loop

--> FOAM Warning : 
    From function dlLibraryTable::open(const dictionary& dict, const word& libsEntry, const TablePtr tablePtr)
    in file lnInclude/dlLibraryTableTemplates.C at line 68
    library "libairbusMaterialModels.so" did not introduce any new entries

Time = 1

DILUPBiCG:  Solving for Ux, Initial residual = 1, Final residual = 0.00897023, No Iterations 1
DILUPBiCG:  Solving for Uy, Initial residual = 1, Final residual = 0.00987563, No Iterations 1
DICPCG:  Solving for p_rgh, Initial residual = 1, Final residual = 0.00291726, No Iterations 6
time step continuity errors : sum local = 0.00216844, global = -4.67853e-17, cumulative = -4.67853e-17
DILUPBiCG:  Solving for epsilon, Initial residual = 0.0778517, Final residual = 0.000142376, No Iterations 2
DILUPBiCG:  Solving for k, Initial residual = 1, Final residual = 0.00252941, No Iterations 2
DICPCG:  Solving for G, Initial residual = 1, Final residual = 0.0866965, No Iterations 12
BiCG:  Solving for T+T, Initial residual = 0.254411, Final residual = 0.0236756, No Iterations 3
ExecutionTime = 0.02 s



Wall heat fluxes [W]
movingWall -0.782214 -1.95156e-15 -0.416973 -1.19919
left 0.0150939 0 0.139421 0.154515
right -0.0929446 0 0.139478 0.0465329
bottom -0.104268 0 0.138084 0.0338159
movingWall2 -0.301071 0 0.390389 0.0893187
left2 -0.1722 0 0.386493 0.214293
right2 -1.63162 -1.80088e-15 -1.1671 -2.79873
bottom2 -0.285727 0 0.390237 0.10451
frontAndBack 0 0 0 0
sum -3.35495 -3.75244e-15 2.42593e-05 -3.35493


Wall heat fluxes [W]
topAndBottom 0 0 0 0
left 0 0 0 0
right -18.3282 0 0 -18.3282
frontAndBack 0 0 0 0
sum -18.3282 0 0 -18.3282

Time = 2

DILUPBiCG:  Solving for Ux, Initial residual = 0.788289, Final residual = 0.00704609, No Iterations 1
DILUPBiCG:  Solving for Uy, Initial residual = 0.781587, Final residual = 0.00773602, No Iterations 1
DICPCG:  Solving for p_rgh, Initial residual = 0.667688, Final residual = 0.00541095, No Iterations 5
time step continuity errors : sum local = 0.0219704, global = -1.59083e-16, cumulative = -2.05869e-16
DILUPBiCG:  Solving for epsilon, Initial residual = 0.0209275, Final residual = 2.89298e-05, No Iterations 2
DILUPBiCG:  Solving for k, Initial residual = 0.659268, Final residual = 0.00085202, No Iterations 2
DICPCG:  Solving for G, Initial residual = 0.266188, Final residual = 0.014138, No Iterations 12
BiCG:  Solving for T+T, Initial residual = 0.0277405, Final residual = 0.00159889, No Iterations 5
ExecutionTime = 0.02 s



Wall heat fluxes [W]
movingWall -0.459967 -7.80626e-15 -0.35176 -0.811727
left 0.0149422 2.84466e-16 0.204342 0.219285
right -0.071162 1.99185e-15 0.0140805 -0.0570816
bottom -0.103092 0 0.133336 0.0302444
movingWall2 -0.327911 -1.2344e-15 0.390344 0.0624336
left2 -0.147704 3.08694e-15 0.228101 0.0803969
right2 -0.902822 -9.85743e-15 -0.969242 -1.87206
bottom2 -0.26862 0 0.350798 0.0821778
frontAndBack 0 0 0 0
sum -2.26634 -1.35348e-14 -1.25054e-07 -2.26634


Wall heat fluxes [W]
topAndBottom 0 0 0 0
left 0 0 0 0
right -6.89585 0 0 -6.89585
frontAndBack 0 0 0 0
sum -6.89585 0 0 -6.89585

Time = 3

DILUPBiCG:  Solving for Ux, Initial residual = 0.243419, Final residual = 1.69626e-05, No Iterations 2
DILUPBiCG:  Solving for Uy, Initial residual = 0.324084, Final residual = 0.00245797, No Iterations 1
DICPCG:  Solving for p_rgh, Initial residual = 0.477983, Final residual = 0.00337319, No Iterations 6
time step continuity errors : sum local = 0.00965539, global = 5.916e-17, cumulative = -1.46709e-16
DILUPBiCG:  Solving for epsilon, Initial residual = 0.0654423, Final residual = 4.31126e-05, No Iterations 2
DILUPBiCG:  Solving for k, Initial residual = 0.211148, Final residual = 0.000261951, No Iterations 2
DICPCG:  Solving for G, Initial residual = 0.0949833, Final residual = 0.00629058, No Iterations 12
BiCG:  Solving for T+T, Initial residual = 0.00905638, Final residual = 0.000878551, No Iterations 5
ExecutionTime = 0.02 s



Wall heat fluxes [W]
movingWall -0.422422 -5.20417e-15 -0.338801 -0.761223
left 0.0175325 -3.80733e-17 0.217473 0.235006
right -0.0814444 1.19551e-15 0.0370573 -0.0443872
bottom -0.0841681 0 0.0842708 0.000102716
movingWall2 -0.32152 -2.4765e-15 0.331921 0.0104007
left2 -0.176394 2.84839e-15 0.315621 0.139227
right2 -0.791663 9.09917e-15 -0.895725 -1.68739
bottom2 -0.242593 0 0.248189 0.00559686
frontAndBack 0 0 0 0
sum -2.10267 5.42433e-15 6.45261e-06 -2.10266


Wall heat fluxes [W]
topAndBottom 0 0 0 0
left 0 0 0 0
right -4.20485 0 0 -4.20485
frontAndBack 0 0 0 0
sum -4.20485 0 0 -4.20485

Time = 4

DILUPBiCG:  Solving for Ux, Initial residual = 0.138916, Final residual = 9.72563e-06, No Iterations 2
DILUPBiCG:  Solving for Uy, Initial residual = 0.282808, Final residual = 0.00231577, No Iterations 1
DICPCG:  Solving for p_rgh, Initial residual = 0.228097, Final residual = 0.00204868, No Iterations 8
time step continuity errors : sum local = 0.00674656, global = 1.52201e-17, cumulative = -1.31489e-16
DILUPBiCG:  Solving for epsilon, Initial residual = 0.0922774, Final residual = 7.89006e-05, No Iterations 2
DILUPBiCG:  Solving for k, Initial residual = 0.125349, Final residual = 0.000147482, No Iterations 2
DICPCG:  Solving for G, Initial residual = 0.0420982, Final residual = 0.00370576, No Iterations 12
BiCG:  Solving for T+T, Initial residual = 0.00624461, Final residual = 0.000518502, No Iterations 4
ExecutionTime = 0.03 s



Wall heat fluxes [W]
movingWall -0.409931 1.30104e-15 -0.327013 -0.736945
left 0.0198989 -6.9372e-17 0.229143 0.249042
right -0.0741148 -2.54184e-15 0.00201647 -0.0720984
bottom -0.0908302 0 0.0958553 0.00502511
movingWall2 -0.330339 -1.23538e-15 0.343344 0.0130046
left2 -0.164995 3.46855e-15 0.25091 0.0859153
right2 -0.758424 0 -0.863572 -1.622
bottom2 -0.259774 0 0.269319 0.00954545
frontAndBack 0 0 0 0
sum -2.06851 9.22996e-16 2.16254e-06 -2.06851


Wall heat fluxes [W]
topAndBottom 0 0 0 0
left 0 0 0 0
right -2.83638 0 0 -2.83638
frontAndBack 0 0 0 0
sum -2.83638 0 0 -2.83638

Time = 5

DILUPBiCG:  Solving for Ux, Initial residual = 0.0950543, Final residual = 0.000789598, No Iterations 1
DILUPBiCG:  Solving for Uy, Initial residual = 0.184487, Final residual = 0.00139731, No Iterations 1
DICPCG:  Solving for p_rgh, Initial residual = 0.125887, Final residual = 0.000723088, No Iterations 13
time step continuity errors : sum local = 0.00190026, global = 1.83303e-17, cumulative = -1.13158e-16
DILUPBiCG:  Solving for epsilon, Initial residual = 0.0947377, Final residual = 9.30942e-05, No Iterations 2
DILUPBiCG:  Solving for k, Initial residual = 0.094476, Final residual = 0.000107719, No Iterations 2
DICPCG:  Solving for G, Initial residual = 0.0166784, Final residual = 0.00111415, No Iterations 12
BiCG:  Solving for T+T, Initial residual = 0.00485042, Final residual = 0.000209109, No Iterations 4
ExecutionTime = 0.03 s



Wall heat fluxes [W]
movingWall -0.403889 2.60209e-15 -0.32413 -0.72802
left 0.0220601 5.2029e-17 0.232045 0.254105
right -0.0730597 -1.04424e-15 0.0033816 -0.0696781
bottom -0.0891659 0 0.0887037 -0.00046221
movingWall2 -0.323203 6.16481e-16 0.326844 0.00364079
left2 -0.167926 -2.40101e-16 0.267223 0.0992971
right2 -0.744259 7.58264e-16 -0.853868 -1.59813
bottom2 -0.261689 0 0.259802 -0.00188697
frontAndBack 0 0 0 0
sum -2.04113 2.74452e-15 6.07434e-07 -2.04113


Wall heat fluxes [W]
topAndBottom 0 0 0 0
left 0 0 0 0
right -2.169 0 0 -2.169
frontAndBack 0 0 0 0
sum -2.169 0 0 -2.169

Time = 6

DILUPBiCG:  Solving for Ux, Initial residual = 0.0722621, Final residual = 0.00052195, No Iterations 1
DILUPBiCG:  Solving for Uy, Initial residual = 0.11331, Final residual = 0.000859182, No Iterations 1
DICPCG:  Solving for p_rgh, Initial residual = 0.0846215, Final residual = 0.000586486, No Iterations 12
time step continuity errors : sum local = 0.00137139, global = -3.78518e-17, cumulative = -1.5101e-16
DILUPBiCG:  Solving for epsilon, Initial residual = 0.0801199, Final residual = 8.41942e-05, No Iterations 2
DILUPBiCG:  Solving for k, Initial residual = 0.0795062, Final residual = 0.000104911, No Iterations 2
DICPCG:  Solving for G, Initial residual = 0.0104827, Final residual = 0.000260712, No Iterations 13
BiCG:  Solving for T+T, Initial residual = 0.00418624, Final residual = 0.000273849, No Iterations 3
ExecutionTime = 0.04 s



Wall heat fluxes [W]
movingWall -0.402799 1.30104e-15 -0.321278 -0.724077
left 0.0242323 -2.38466e-17 0.23486 0.259092
right -0.068271 2.98101e-16 -0.00604486 -0.0743158
bottom -0.0910377 0 0.0924633 0.00142565
movingWall2 -0.322489 6.36402e-16 0.325936 0.00344689
left2 -0.163474 7.93211e-17 0.251738 0.0882631
right2 -0.734287 -6.06611e-15 -0.847563 -1.58185
bottom2 -0.266931 0 0.26989 0.00295851
frontAndBack 0 0 0 0
sum -2.02506 -3.77509e-15 1.3914e-07 -2.02506


Wall heat fluxes [W]
topAndBottom 0 0 0 0
left 0 0 0 0
right -1.57658 0 0 -1.57658
frontAndBack 0 0 0 0
sum -1.57658 0 0 -1.57658

Time = 7

DILUPBiCG:  Solving for Ux, Initial residual = 0.062139, Final residual = 0.000442328, No Iterations 1
DILUPBiCG:  Solving for Uy, Initial residual = 0.0803757, Final residual = 5.03776e-06, No Iterations 2
DICPCG:  Solving for p_rgh, Initial residual = 0.0783983, Final residual = 0.000605809, No Iterations 6
time step continuity errors : sum local = 0.00151529, global = 8.52492e-17, cumulative = -6.57609e-17
DILUPBiCG:  Solving for epsilon, Initial residual = 0.0641774, Final residual = 6.83285e-05, No Iterations 2
DILUPBiCG:  Solving for k, Initial residual = 0.071053, Final residual = 0.000173788, No Iterations 2
DICPCG:  Solving for G, Initial residual = 0.00471231, Final residual = 0.000371595, No Iterations 12
BiCG:  Solving for T+T, Initial residual = 0.00360993, Final residual = 0.000112666, No Iterations 3
ExecutionTime = 0.04 s



Wall heat fluxes [W]
movingWall -0.404033 3.90313e-15 -0.319682 -0.723715
left 0.0261137 -3.68539e-17 0.236448 0.262562
right -0.0657912 3.08495e-15 -0.00798198 -0.0737731
bottom -0.0903337 0 0.0912162 0.000882481
movingWall2 -0.321104 1.87989e-15 0.322656 0.00155127
left2 -0.162748 -2.86139e-15 0.253698 0.0909499
right2 -0.727438 0 -0.843944 -1.57138
bottom2 -0.265782 0 0.26759 0.00180868
frontAndBack 0 0 0 0
sum -2.01112 5.96972e-15 6.7257e-09 -2.01112


Wall heat fluxes [W]
topAndBottom 0 0 0 0
left 0 0 0 0
right -1.17689 0 0 -1.17689
frontAndBack 0 0 0 0
sum -1.17689 0 0 -1.17689

Time = 8

DILUPBiCG:  Solving for Ux, Initial residual = 0.050708, Final residual = 0.000371629, No Iterations 1
DILUPBiCG:  Solving for Uy, Initial residual = 0.0661779, Final residual = 4.85712e-06, No Iterations 2
DICPCG:  Solving for p_rgh, Initial residual = 0.0845903, Final residual = 0.000717821, No Iterations 8
time step continuity errors : sum local = 0.00183307, global = 2.62382e-17, cumulative = -3.95227e-17
DILUPBiCG:  Solving for epsilon, Initial residual = 0.0510689, Final residual = 5.19867e-05, No Iterations 2
DILUPBiCG:  Solving for k, Initial residual = 0.0657334, Final residual = 0.000285453, No Iterations 2
DICPCG:  Solving for G, Initial residual = 0.00559698, Final residual = 0.000143841, No Iterations 13
BiCG:  Solving for T+T, Initial residual = 0.0032298, Final residual = 0.000294115, No Iterations 4
ExecutionTime = 0.04 s



Wall heat fluxes [W]
movingWall -0.405027 5.20417e-15 -0.317598 -0.722625
left 0.0273771 8.23792e-17 0.238516 0.265894
right -0.0612294 -8.27858e-16 -0.0124591 -0.0736886
bottom -0.0900472 0 0.0915411 0.00149388
movingWall2 -0.32212 1.24821e-15 0.323403 0.00128288
left2 -0.160404 3.1713e-16 0.24888 0.0884758
right2 -0.724099 -5.68698e-15 -0.840111 -1.56421
bottom2 -0.265035 0 0.267829 0.00279353
frontAndBack 0 0 0 0
sum -2.00058 3.3705e-16 -3.43739e-08 -2.00058


Wall heat fluxes [W]
topAndBottom 0 0 0 0
left 0 0 0 0
right -0.854085 0 0 -0.854085
frontAndBack 0 0 0 0
sum -0.854085 0 0 -0.854085

Time = 9

DILUPBiCG:  Solving for Ux, Initial residual = 0.041818, Final residual = 0.000314684, No Iterations 1
DILUPBiCG:  Solving for Uy, Initial residual = 0.0560987, Final residual = 5.14905e-06, No Iterations 2
DICPCG:  Solving for p_rgh, Initial residual = 0.0898073, Final residual = 0.000595352, No Iterations 12
time step continuity errors : sum local = 0.00111129, global = -3.61623e-17, cumulative = -7.5685e-17
DILUPBiCG:  Solving for epsilon, Initial residual = 0.0415948, Final residual = 4.43204e-05, No Iterations 2
DILUPBiCG:  Solving for k, Initial residual = 0.0619935, Final residual = 0.000547336, No Iterations 2
DICPCG:  Solving for G, Initial residual = 0.00451506, Final residual = 0.00044349, No Iterations 12
BiCG:  Solving for T+T, Initial residual = 0.00294042, Final residual = 0.000140641, No Iterations 3
ExecutionTime = 0.05 s



Wall heat fluxes [W]
movingWall -0.404316 -3.90313e-15 -0.315759 -0.720074
left 0.0282622 -5.2029e-17 0.24035 0.268612
right -0.057627 7.51373e-16 -0.0149956 -0.0726226
bottom -0.0888588 0 0.0904045 0.00154574
movingWall2 -0.32255 -6.15253e-16 0.323935 0.00138511
left2 -0.158901 1.51293e-16 0.247727 0.0888255
right2 -0.720845 1.89566e-15 -0.837017 -1.55786
bottom2 -0.262866 0 0.265355 0.0024895
frontAndBack 0 0 0 0
sum -1.9877 -1.77208e-15 -1.57346e-07 -1.9877


Wall heat fluxes [W]
topAndBottom 0 0 0 0
left 0 0 0 0
right -0.636266 0 0 -0.636266
frontAndBack 0 0 0 0
sum -0.636266 0 0 -0.636266

Time = 10

DILUPBiCG:  Solving for Ux, Initial residual = 0.035162, Final residual = 1.42925e-05, No Iterations 2
DILUPBiCG:  Solving for Uy, Initial residual = 0.0502817, Final residual = 6.51901e-06, No Iterations 2
DICPCG:  Solving for p_rgh, Initial residual = 0.0872013, Final residual = 0.000867475, No Iterations 11
time step continuity errors : sum local = 0.00152702, global = 1.53492e-16, cumulative = 7.78067e-17
DILUPBiCG:  Solving for epsilon, Initial residual = 0.0347701, Final residual = 3.44327e-05, No Iterations 2
DILUPBiCG:  Solving for k, Initial residual = 0.0591635, Final residual = 2.96429e-06, No Iterations 3
DICPCG:  Solving for G, Initial residual = 0.00530432, Final residual = 0.000115471, No Iterations 13
BiCG:  Solving for T+T, Initial residual = 0.00274191, Final residual = 6.72079e-05, No Iterations 3
ExecutionTime = 0.05 s



Wall heat fluxes [W]
movingWall -0.402193 7.15573e-15 -0.313486 -0.715679
left 0.0290343 -8.6715e-18 0.242613 0.271647
right -0.0546879 3.75951e-16 -0.0187238 -0.0734117
bottom -0.0879717 0 0.0895967 0.00162501
movingWall2 -0.322983 -1.25272e-15 0.324643 0.00166018
left2 -0.157508 7.23769e-16 0.245048 0.0875398
right2 -0.718898 3.41219e-15 -0.833553 -1.55245
bottom2 -0.261146 0 0.263863 0.00271636
frontAndBack 0 0 0 0
sum -1.97635 1.04063e-14 1.15352e-08 -1.97635


Wall heat fluxes [W]
topAndBottom 0 0 0 0
left 0 0 0 0
right -0.465883 0 0 -0.465883
frontAndBack 0 0 0 0
sum -0.465883 0 0 -0.465883

Time = 11

DILUPBiCG:  Solving for Ux, Initial residual = 0.0309831, Final residual = 5.56518e-05, No Iterations 2
DILUPBiCG:  Solving for Uy, Initial residual = 0.0451818, Final residual = 9.14717e-06, No Iterations 2
DICPCG:  Solving for p_rgh, Initial residual = 0.0827435, Final residual = 0.000802395, No Iterations 11
time step continuity errors : sum local = 0.0013453, global = 3.07711e-18, cumulative = 8.08838e-17
DILUPBiCG:  Solving for epsilon, Initial residual = 0.0295782, Final residual = 2.58558e-05, No Iterations 2
DILUPBiCG:  Solving for k, Initial residual = 0.0569599, Final residual = 2.86741e-06, No Iterations 3
DICPCG:  Solving for G, Initial residual = 0.00500245, Final residual = 0.000480099, No Iterations 12
BiCG:  Solving for T+T, Initial residual = 0.00257588, Final residual = 7.10657e-05, No Iterations 3
ExecutionTime = 0.05 s



Wall heat fluxes [W]
movingWall -0.399568 0 -0.311302 -0.71087
left 0.0296764 -5.89662e-16 0.24479 0.274466
right -0.0523582 6.79338e-16 -0.0220324 -0.0743906
bottom -0.0870143 0 0.0885448 0.00153045
movingWall2 -0.32291 -1.86983e-15 0.32483 0.0019199
left2 -0.156291 2.63457e-15 0.243283 0.0869921
right2 -0.718493 0 -0.83006 -1.54855
bottom2 -0.259608 0 0.261947 0.0023386
frontAndBack 0 0 0 0
sum -1.96657 8.54417e-16 2.22867e-08 -1.96657


Wall heat fluxes [W]
topAndBottom 0 0 0 0
left 0 0 0 0
right -0.346598 0 0 -0.346598
frontAndBack 0 0 0 0
sum -0.346598 0 0 -0.346598

Time = 12

DILUPBiCG:  Solving for Ux, Initial residual = 0.0277462, Final residual = 0.000229213, No Iterations 1
DILUPBiCG:  Solving for Uy, Initial residual = 0.0412929, Final residual = 1.24866e-05, No Iterations 2
DICPCG:  Solving for p_rgh, Initial residual = 0.0802178, Final residual = 0.000749101, No Iterations 11
time step continuity errors : sum local = 0.00121646, global = -5.76059e-17, cumulative = 2.32779e-17
DILUPBiCG:  Solving for epsilon, Initial residual = 0.0256164, Final residual = 2.05746e-05, No Iterations 2
DILUPBiCG:  Solving for k, Initial residual = 0.0551976, Final residual = 0.000456132, No Iterations 2
DICPCG:  Solving for G, Initial residual = 0.00501926, Final residual = 0.000454142, No Iterations 12
BiCG:  Solving for T+T, Initial residual = 0.00246798, Final residual = 5.16924e-05, No Iterations 3
ExecutionTime = 0.05 s



Wall heat fluxes [W]
movingWall -0.396579 -1.30104e-15 -0.309311 -0.705889
left 0.0302175 1.47415e-16 0.246775 0.276993
right -0.0501763 -1.10962e-16 -0.0249533 -0.0751296
bottom -0.0860086 0 0.0874888 0.00148021
movingWall2 -0.322391 -1.87823e-15 0.324386 0.00199489
left2 -0.154966 -8.79502e-16 0.241628 0.0866622
right2 -0.718821 1.89566e-16 -0.826682 -1.5455
bottom2 -0.258207 0 0.260668 0.00246179
frontAndBack 0 0 0 0
sum -1.95693 -3.83276e-15 5.52178e-08 -1.95693


Wall heat fluxes [W]
topAndBottom 0 0 0 0
left 0 0 0 0
right -0.254471 0 0 -0.254471
frontAndBack 0 0 0 0
sum -0.254471 0 0 -0.254471

Time = 13

DILUPBiCG:  Solving for Ux, Initial residual = 0.0250519, Final residual = 0.000190464, No Iterations 1
DILUPBiCG:  Solving for Uy, Initial residual = 0.0390288, Final residual = 1.64917e-05, No Iterations 2
DICPCG:  Solving for p_rgh, Initial residual = 0.0756916, Final residual = 0.00072334, No Iterations 11
time step continuity errors : sum local = 0.00115558, global = -2.6536e-17, cumulative = -3.25806e-18
DILUPBiCG:  Solving for epsilon, Initial residual = 0.0222442, Final residual = 1.66845e-05, No Iterations 2
DILUPBiCG:  Solving for k, Initial residual = 0.0537974, Final residual = 0.000269414, No Iterations 2
DICPCG:  Solving for G, Initial residual = 0.00482781, Final residual = 0.000411115, No Iterations 12
BiCG:  Solving for T+T, Initial residual = 0.00239541, Final residual = 0.000170244, No Iterations 4
ExecutionTime = 0.06 s



Wall heat fluxes [W]
movingWall -0.393526 -6.50521e-16 -0.307515 -0.701041
left 0.0306312 -1.21401e-16 0.248567 0.279198
right -0.0466886 2.27153e-16 -0.0273901 -0.0740787
bottom -0.0849597 0 0.0863385 0.00137886
movingWall2 -0.321685 9.41986e-16 0.323779 0.0020933
left2 -0.153369 -2.88254e-15 0.240404 0.0870349
right2 -0.719741 3.79132e-16 -0.823315 -1.54306
bottom2 -0.256791 0 0.259132 0.00234077
frontAndBack 0 0 0 0
sum -1.94613 -2.10619e-15 1.27842e-07 -1.94613


Wall heat fluxes [W]
topAndBottom 0 0 0 0
left 0 0 0 0
right -0.195381 0 0 -0.195381
frontAndBack 0 0 0 0
sum -0.195381 0 0 -0.195381

Time = 14

DILUPBiCG:  Solving for Ux, Initial residual = 0.0229655, Final residual = 0.000175511, No Iterations 1
DILUPBiCG:  Solving for Uy, Initial residual = 0.0369273, Final residual = 1.60232e-05, No Iterations 2
DICPCG:  Solving for p_rgh, Initial residual = 0.0795661, Final residual = 0.000679075, No Iterations 11
time step continuity errors : sum local = 0.00107188, global = -1.89259e-17, cumulative = -2.2184e-17
DILUPBiCG:  Solving for epsilon, Initial residual = 0.0191526, Final residual = 1.32027e-05, No Iterations 2
DILUPBiCG:  Solving for k, Initial residual = 0.0524515, Final residual = 0.000175093, No Iterations 2
DICPCG:  Solving for G, Initial residual = 0.00472197, Final residual = 0.000404226, No Iterations 12
BiCG:  Solving for T+T, Initial residual = 0.0023563, Final residual = 0.000210968, No Iterations 2
ExecutionTime = 0.06 s



Wall heat fluxes [W]
movingWall -0.390201 -3.90313e-15 -0.30583 -0.696031
left 0.0310437 -4.68261e-16 0.250248 0.281292
right -0.0442651 2.15945e-17 -0.0296986 -0.0739637
bottom -0.0838521 0 0.0852801 0.00142803
movingWall2 -0.320437 -6.38493e-16 0.322984 0.00254699
left2 -0.1516 1.6315e-16 0.239113 0.0875135
right2 -0.720358 1.89566e-15 -0.819941 -1.5403
bottom2 -0.255254 0 0.257844 0.00259038
frontAndBack 0 0 0 0
sum -1.93492 -2.92948e-15 1.08797e-07 -1.93492


Wall heat fluxes [W]
topAndBottom 0 0 0 0
left 0 0 0 0
right -0.184345 0 0 -0.184345
frontAndBack 0 0 0 0
sum -0.184345 0 0 -0.184345

Time = 15

DILUPBiCG:  Solving for Ux, Initial residual = 0.0211101, Final residual = 0.000158422, No Iterations 1
DILUPBiCG:  Solving for Uy, Initial residual = 0.0361684, Final residual = 1.582e-05, No Iterations 2
DICPCG:  Solving for p_rgh, Initial residual = 0.0789333, Final residual = 0.000596465, No Iterations 11
time step continuity errors : sum local = 0.00094057, global = -7.07415e-17, cumulative = -9.29255e-17
DILUPBiCG:  Solving for epsilon, Initial residual = 0.0165344, Final residual = 1.18652e-05, No Iterations 2
DILUPBiCG:  Solving for k, Initial residual = 0.0510838, Final residual = 0.00012892, No Iterations 2
DICPCG:  Solving for G, Initial residual = 0.00542676, Final residual = 0.000529126, No Iterations 12
BiCG:  Solving for T+T, Initial residual = 0.0023637, Final residual = 0.000223461, No Iterations 2
ExecutionTime = 0.06 s



Wall heat fluxes [W]
movingWall -0.386768 -2.60209e-15 -0.303876 -0.690644
left 0.0315178 -7.11063e-16 0.252197 0.283715
right -0.0423535 1.1473e-16 -0.0327141 -0.0750676
bottom -0.0829611 0 0.0843924 0.00143131
movingWall2 -0.318871 6.24369e-16 0.321805 0.00293336
left2 -0.149961 -2.88865e-15 0.237663 0.0877017
right2 -0.720141 1.1374e-15 -0.816045 -1.53619
bottom2 -0.253727 0 0.256578 0.00285172
frontAndBack 0 0 0 0
sum -1.92326 -4.3253e-15 3.65165e-08 -1.92326


Wall heat fluxes [W]
topAndBottom 0 0 0 0
left 0 0 0 0
right -0.171762 0 0 -0.171762
frontAndBack 0 0 0 0
sum -0.171762 0 0 -0.171762

Time = 16

DILUPBiCG:  Solving for Ux, Initial residual = 0.0194964, Final residual = 0.000146825, No Iterations 1
DILUPBiCG:  Solving for Uy, Initial residual = 0.0349856, Final residual = 2.16959e-05, No Iterations 2
DICPCG:  Solving for p_rgh, Initial residual = 0.0701698, Final residual = 0.000513322, No Iterations 11
time step continuity errors : sum local = 0.000812337, global = 9.83352e-17, cumulative = 5.40976e-18
DILUPBiCG:  Solving for epsilon, Initial residual = 0.0142774, Final residual = 1.16472e-05, No Iterations 2
DILUPBiCG:  Solving for k, Initial residual = 0.0495815, Final residual = 0.000100741, No Iterations 2
DICPCG:  Solving for G, Initial residual = 0.00577108, Final residual = 0.00048072, No Iterations 12
BiCG:  Solving for T+T, Initial residual = 0.0023707, Final residual = 0.000221789, No Iterations 2
ExecutionTime = 0.06 s



Wall heat fluxes [W]
movingWall -0.383228 3.90313e-15 -0.302038 -0.685266
left 0.0321217 1.21401e-16 0.25403 0.286152
right -0.0408404 -4.7306e-16 -0.0353757 -0.0762162
bottom -0.082129 0 0.0833831 0.00125409
movingWall2 -0.316927 -3.05669e-16 0.320221 0.00329377
left2 -0.148414 8.05173e-16 0.236403 0.0879891
right2 -0.718945 2.65392e-15 -0.811781 -1.53073
bottom2 -0.252172 0 0.255157 0.00298575
frontAndBack 0 0 0 0
sum -1.91053 6.7049e-15 1.59475e-07 -1.91053


Wall heat fluxes [W]
topAndBottom 0 0 0 0
left 0 0 0 0
right -0.159264 0 0 -0.159264
frontAndBack 0 0 0 0
sum -0.159264 0 0 -0.159264

Time = 17

DILUPBiCG:  Solving for Ux, Initial residual = 0.0183689, Final residual = 0.000140428, No Iterations 1
DILUPBiCG:  Solving for Uy, Initial residual = 0.0342023, Final residual = 3.39725e-05, No Iterations 2
DICPCG:  Solving for p_rgh, Initial residual = 0.0645847, Final residual = 0.000593397, No Iterations 10
time step continuity errors : sum local = 0.000933282, global = 1.20437e-17, cumulative = 1.74535e-17
DILUPBiCG:  Solving for epsilon, Initial residual = 0.0121602, Final residual = 1.08632e-05, No Iterations 2
DILUPBiCG:  Solving for k, Initial residual = 0.0483412, Final residual = 7.71089e-05, No Iterations 2
DICPCG:  Solving for G, Initial residual = 0.00581704, Final residual = 0.000491528, No Iterations 12
BiCG:  Solving for T+T, Initial residual = 0.00237501, Final residual = 0.000228779, No Iterations 1
ExecutionTime = 0.07 s



Wall heat fluxes [W]
movingWall -0.379796 1.30104e-15 -0.300399 -0.680194
left 0.0324855 2.08116e-16 0.255665 0.28815
right -0.0401059 -2.32068e-16 -0.0377946 -0.0779005
bottom -0.081344 0 0.0825282 0.0011842
movingWall2 -0.314724 9.49709e-16 0.318173 0.00344926
left2 -0.147682 -8.06672e-16 0.235364 0.0876815
right2 -0.71723 1.32696e-15 -0.80726 -1.52449
bottom2 -0.250714 0 0.253723 0.00300948
frontAndBack 0 0 0 0
sum -1.89911 2.74709e-15 1.19613e-07 -1.89911


Wall heat fluxes [W]
topAndBottom 0 0 0 0
left 0 0 0 0
right -0.155382 0 0 -0.155382
frontAndBack 0 0 0 0
sum -0.155382 0 0 -0.155382

Time = 18

DILUPBiCG:  Solving for Ux, Initial residual = 0.0174716, Final residual = 0.000140729, No Iterations 1
DILUPBiCG:  Solving for Uy, Initial residual = 0.034226, Final residual = 4.08148e-05, No Iterations 2
DICPCG:  Solving for p_rgh, Initial residual = 0.06559, Final residual = 0.000565883, No Iterations 10
time step continuity errors : sum local = 0.000896126, global = 2.47492e-17, cumulative = 4.22028e-17
DILUPBiCG:  Solving for epsilon, Initial residual = 0.0102895, Final residual = 2.31372e-05, No Iterations 2
DILUPBiCG:  Solving for k, Initial residual = 0.0473095, Final residual = 6.33481e-05, No Iterations 2
DICPCG:  Solving for G, Initial residual = 0.00577577, Final residual = 0.000453049, No Iterations 12
BiCG:  Solving for T+T, Initial residual = 0.00238658, Final residual = 0.000225727, No Iterations 1
ExecutionTime = 0.07 s



Wall heat fluxes [W]
movingWall -0.376302 6.50521e-16 -0.298902 -0.675203
left 0.0328693 2.08116e-16 0.257159 0.290028
right -0.0392813 -1.12531e-15 -0.0399279 -0.0792092
bottom -0.0805201 0 0.0816706 0.00115051
movingWall2 -0.312168 3.06371e-16 0.315903 0.0037343
left2 -0.146246 4.01826e-16 0.234419 0.0881726
right2 -0.714827 0 -0.802651 -1.51748
bottom2 -0.249098 0 0.252329 0.00323072
frontAndBack 0 0 0 0
sum -1.88557 4.41522e-16 1.92301e-07 -1.88557


Wall heat fluxes [W]
topAndBottom 0 0 0 0
left 0 0 0 0
right -0.151556 0 0 -0.151556
frontAndBack 0 0 0 0
sum -0.151556 0 0 -0.151556

Time = 19

DILUPBiCG:  Solving for Ux, Initial residual = 0.0169623, Final residual = 0.000136875, No Iterations 1
DILUPBiCG:  Solving for Uy, Initial residual = 0.034126, Final residual = 3.87602e-05, No Iterations 2
DICPCG:  Solving for p_rgh, Initial residual = 0.0629632, Final residual = 0.000521617, No Iterations 10
time step continuity errors : sum local = 0.000823106, global = -3.44107e-18, cumulative = 3.87617e-17
DILUPBiCG:  Solving for epsilon, Initial residual = 0.00923198, Final residual = 1.47718e-05, No Iterations 2
DILUPBiCG:  Solving for k, Initial residual = 0.0462387, Final residual = 6.09813e-05, No Iterations 2
DICPCG:  Solving for G, Initial residual = 0.00556681, Final residual = 0.000551835, No Iterations 11
BiCG:  Solving for T+T, Initial residual = 0.00239594, Final residual = 0.000223772, No Iterations 1
ExecutionTime = 0.07 s



Wall heat fluxes [W]
movingWall -0.372797 -2.60209e-15 -0.297638 -0.670435
left 0.0332911 -1.04058e-16 0.25842 0.291711
right -0.0387749 -2.11003e-16 -0.0414259 -0.0802008
bottom -0.0796319 0 0.0806447 0.00101278
movingWall2 -0.30908 3.1665e-16 0.313085 0.0040056
left2 -0.144744 7.26796e-16 0.234409 0.0896642
right2 -0.712209 1.89566e-15 -0.798013 -1.51022
bottom2 -0.247144 0 0.250519 0.0033752
frontAndBack 0 0 0 0
sum -1.87109 2.19601e-17 -3.76461e-07 -1.87109


Wall heat fluxes [W]
topAndBottom 0 0 0 0
left 0 0 0 0
right -0.147822 0 0 -0.147822
frontAndBack 0 0 0 0
sum -0.147822 0 0 -0.147822

Time = 20

DILUPBiCG:  Solving for Ux, Initial residual = 0.0162894, Final residual = 0.000130784, No Iterations 1
DILUPBiCG:  Solving for Uy, Initial residual = 0.0339553, Final residual = 1.72458e-05, No Iterations 2
DICPCG:  Solving for p_rgh, Initial residual = 0.059927, Final residual = 0.000464878, No Iterations 10
time step continuity errors : sum local = 0.000726486, global = -1.61069e-16, cumulative = -1.22307e-16
DILUPBiCG:  Solving for epsilon, Initial residual = 0.00910279, Final residual = 1.34848e-05, No Iterations 2
DILUPBiCG:  Solving for k, Initial residual = 0.0454548, Final residual = 6.38091e-05, No Iterations 2
DICPCG:  Solving for G, Initial residual = 0.00600845, Final residual = 0.000439274, No Iterations 11
BiCG:  Solving for T+T, Initial residual = 0.00240604, Final residual = 0.000221556, No Iterations 1
ExecutionTime = 0.08 s



Wall heat fluxes [W]
movingWall -0.36903 -5.20417e-15 -0.29643 -0.66546
left 0.0337649 5.89662e-16 0.259625 0.29339
right -0.0384194 1.148e-16 -0.0430359 -0.0814553
bottom -0.0788295 0 0.0798402 0.00101065
movingWall2 -0.305721 -6.38343e-16 0.310129 0.00440794
left2 -0.142895 -3.71504e-15 0.234026 0.0911312
right2 -0.708735 -3.98089e-15 -0.792974 -1.50171
bottom2 -0.245118 0 0.24882 0.00370206
frontAndBack 0 0 0 0
sum -1.85498 -1.2834e-14 -2.28541e-07 -1.85498


Wall heat fluxes [W]
topAndBottom 0 0 0 0
left 0 0 0 0
right -0.144174 0 0 -0.144174
frontAndBack 0 0 0 0
sum -0.144174 0 0 -0.144174

Time = 21

DILUPBiCG:  Solving for Ux, Initial residual = 0.0157549, Final residual = 0.00012657, No Iterations 1
DILUPBiCG:  Solving for Uy, Initial residual = 0.0339158, Final residual = 8.16376e-06, No Iterations 2
DICPCG:  Solving for p_rgh, Initial residual = 0.0603047, Final residual = 0.000443134, No Iterations 10
time step continuity errors : sum local = 0.000685153, global = -8.95671e-17, cumulative = -2.11874e-16
DILUPBiCG:  Solving for epsilon, Initial residual = 0.00993716, Final residual = 1.30602e-05, No Iterations 2
DILUPBiCG:  Solving for k, Initial residual = 0.0449362, Final residual = 6.84858e-05, No Iterations 2
DICPCG:  Solving for G, Initial residual = 0.00624307, Final residual = 0.000457742, No Iterations 11
BiCG:  Solving for T+T, Initial residual = 0.00240709, Final residual = 0.000219022, No Iterations 1
ExecutionTime = 0.08 s



Wall heat fluxes [W]
movingWall -0.36497 -4.55365e-15 -0.295273 -0.660243
left 0.0343273 -6.9372e-17 0.260779 0.295106
right -0.0382588 1.51942e-16 -0.0444927 -0.0827515
bottom -0.0780103 0 0.0789875 0.000977186
movingWall2 -0.302 -2.23484e-15 0.306787 0.00478658
left2 -0.140831 -3.26068e-16 0.233839 0.093008
right2 -0.704308 -5.68698e-16 -0.787514 -1.49182
bottom2 -0.242907 0 0.246887 0.00398044
frontAndBack 0 0 0 0
sum -1.83696 -7.60069e-15 -1.44286e-07 -1.83696


Wall heat fluxes [W]
topAndBottom 0 0 0 0
left 0 0 0 0
right -0.140611 0 0 -0.140611
frontAndBack 0 0 0 0
sum -0.140611 0 0 -0.140611

Time = 22

DILUPBiCG:  Solving for Ux, Initial residual = 0.0151392, Final residual = 0.000125138, No Iterations 1
DILUPBiCG:  Solving for Uy, Initial residual = 0.0334192, Final residual = 5.47547e-06, No Iterations 2
DICPCG:  Solving for p_rgh, Initial residual = 0.0578657, Final residual = 0.000457887, No Iterations 10
time step continuity errors : sum local = 0.000708185, global = -5.07558e-17, cumulative = -2.6263e-16
DILUPBiCG:  Solving for epsilon, Initial residual = 0.0105642, Final residual = 1.1694e-05, No Iterations 2
DILUPBiCG:  Solving for k, Initial residual = 0.0441707, Final residual = 7.35641e-05, No Iterations 2
DICPCG:  Solving for G, Initial residual = 0.00669349, Final residual = 0.000544251, No Iterations 11
BiCG:  Solving for T+T, Initial residual = 0.002407, Final residual = 0.000217151, No Iterations 1
ExecutionTime = 0.08 s



Wall heat fluxes [W]
movingWall -0.360592 -5.85469e-15 -0.294134 -0.654726
left 0.0350825 -1.38744e-16 0.261915 0.296998
right -0.038215 3.60883e-17 -0.0459655 -0.0841805
bottom -0.0772306 0 0.0781842 0.000953574
movingWall2 -0.297974 6.38601e-16 0.303172 0.00519779
left2 -0.138532 -2.10733e-15 0.233512 0.0949795
right2 -0.698904 4.54958e-15 -0.781567 -1.48047
bottom2 -0.240565 0 0.244884 0.00431881
frontAndBack 0 0 0 0
sum -1.81693 -2.87649e-15 -5.00509e-07 -1.81693


Wall heat fluxes [W]
topAndBottom 0 0 0 0
left 0 0 0 0
right -0.137132 0 0 -0.137132
frontAndBack 0 0 0 0
sum -0.137132 0 0 -0.137132

Time = 23

DILUPBiCG:  Solving for Ux, Initial residual = 0.0145705, Final residual = 0.000124745, No Iterations 1
DILUPBiCG:  Solving for Uy, Initial residual = 0.0324989, Final residual = 4.0668e-06, No Iterations 2
DICPCG:  Solving for p_rgh, Initial residual = 0.055826, Final residual = 0.000501, No Iterations 10
time step continuity errors : sum local = 0.000775687, global = 7.27919e-19, cumulative = -2.61902e-16
DILUPBiCG:  Solving for epsilon, Initial residual = 0.0109881, Final residual = 1.11839e-05, No Iterations 2
DILUPBiCG:  Solving for k, Initial residual = 0.0434089, Final residual = 7.80539e-05, No Iterations 2
DICPCG:  Solving for G, Initial residual = 0.00721994, Final residual = 0.000499047, No Iterations 11
BiCG:  Solving for T+T, Initial residual = 0.00240326, Final residual = 0.000215449, No Iterations 1
ExecutionTime = 0.08 s



Wall heat fluxes [W]
movingWall -0.355876 -1.30104e-15 -0.293014 -0.64889
left 0.0360112 0 0.263032 0.299043
right -0.0382738 1.90642e-16 -0.0474266 -0.0857004
bottom -0.0765073 0 0.077409 0.000901746
movingWall2 -0.293644 9.63891e-16 0.299236 0.00559242
left2 -0.135985 -1.46154e-15 0.233178 0.0971933
right2 -0.692557 9.4783e-16 -0.775119 -1.46768
bottom2 -0.238052 0 0.242704 0.00465232
frontAndBack 0 0 0 0
sum -1.79488 -6.60224e-16 -1.45111e-07 -1.79488


Wall heat fluxes [W]
topAndBottom 0 0 0 0
left 0 0 0 0
right -0.133737 0 0 -0.133737
frontAndBack 0 0 0 0
sum -0.133737 0 0 -0.133737

Time = 24

DILUPBiCG:  Solving for Ux, Initial residual = 0.0139848, Final residual = 0.000124213, No Iterations 1
DILUPBiCG:  Solving for Uy, Initial residual = 0.0315167, Final residual = 3.42946e-06, No Iterations 2
DICPCG:  Solving for p_rgh, Initial residual = 0.0540646, Final residual = 0.000302055, No Iterations 11
time step continuity errors : sum local = 0.000469459, global = 2.55764e-17, cumulative = -2.36326e-16
DILUPBiCG:  Solving for epsilon, Initial residual = 0.0112032, Final residual = 1.52784e-05, No Iterations 2
DILUPBiCG:  Solving for k, Initial residual = 0.0427595, Final residual = 8.30709e-05, No Iterations 2
DICPCG:  Solving for G, Initial residual = 0.00763382, Final residual = 0.000597939, No Iterations 11
BiCG:  Solving for T+T, Initial residual = 0.00239303, Final residual = 0.000212704, No Iterations 1
ExecutionTime = 0.09 s



Wall heat fluxes [W]
movingWall -0.350796 1.95156e-15 -0.291911 -0.642706
left 0.0371632 0 0.264131 0.301295
right -0.0384083 6.11828e-16 -0.0489411 -0.0873494
bottom -0.0758835 0 0.0767202 0.000836725
movingWall2 -0.289042 1.92959e-15 0.29502 0.0059775
left2 -0.133169 -9.74385e-16 0.232773 0.0996032
right2 -0.685347 7.58264e-16 -0.76816 -1.45351
bottom2 -0.235425 0 0.240367 0.00494199
frontAndBack 0 0 0 0
sum -1.77091 4.27686e-15 -4.81405e-07 -1.77091


Wall heat fluxes [W]
topAndBottom 0 0 0 0
left 0 0 0 0
right -0.130425 0 0 -0.130425
frontAndBack 0 0 0 0
sum -0.130425 0 0 -0.130425

Time = 25

DILUPBiCG:  Solving for Ux, Initial residual = 0.0134469, Final residual = 0.000127718, No Iterations 1
DILUPBiCG:  Solving for Uy, Initial residual = 0.0306589, Final residual = 3.04389e-06, No Iterations 2
DICPCG:  Solving for p_rgh, Initial residual = 0.0536173, Final residual = 0.000361184, No Iterations 11
time step continuity errors : sum local = 0.000563992, global = -7.88138e-17, cumulative = -3.15139e-16
DILUPBiCG:  Solving for epsilon, Initial residual = 0.011427, Final residual = 2.89781e-05, No Iterations 2
DILUPBiCG:  Solving for k, Initial residual = 0.0419951, Final residual = 8.79105e-05, No Iterations 2
DICPCG:  Solving for G, Initial residual = 0.00816867, Final residual = 0.000646313, No Iterations 11
BiCG:  Solving for T+T, Initial residual = 0.00237932, Final residual = 0.000209792, No Iterations 1
ExecutionTime = 0.09 s



Wall heat fluxes [W]
movingWall -0.345348 -1.30104e-15 -0.290826 -0.636174
left 0.0385941 -6.59034e-16 0.265211 0.303805
right -0.0385824 1.5468e-16 -0.0505263 -0.0891087
bottom -0.0753461 0 0.0761415 0.000795476
movingWall2 -0.284185 -1.61305e-15 0.290519 0.00633411
left2 -0.130112 -3.8276e-15 0.232259 0.102147
right2 -0.677365 1.89566e-15 -0.760715 -1.43808
bottom2 -0.232614 0 0.237936 0.00532257
frontAndBack 0 0 0 0
sum -1.74496 -5.35039e-15 -2.0527e-07 -1.74496


Wall heat fluxes [W]
topAndBottom 0 0 0 0
left 0 0 0 0
right -0.127195 0 0 -0.127195
frontAndBack 0 0 0 0
sum -0.127195 0 0 -0.127195

Time = 26

DILUPBiCG:  Solving for Ux, Initial residual = 0.0129765, Final residual = 7.02809e-06, No Iterations 2
DILUPBiCG:  Solving for Uy, Initial residual = 0.0295279, Final residual = 2.91901e-06, No Iterations 2
DICPCG:  Solving for p_rgh, Initial residual = 0.0544051, Final residual = 0.000406789, No Iterations 11
time step continuity errors : sum local = 0.000632406, global = 7.73579e-17, cumulative = -2.37781e-16
DILUPBiCG:  Solving for epsilon, Initial residual = 0.0115687, Final residual = 8.01292e-05, No Iterations 2
DILUPBiCG:  Solving for k, Initial residual = 0.0412728, Final residual = 9.40424e-05, No Iterations 2
DICPCG:  Solving for G, Initial residual = 0.00863962, Final residual = 0.000726968, No Iterations 11
BiCG:  Solving for T+T, Initial residual = 0.0023609, Final residual = 0.000206841, No Iterations 1
ExecutionTime = 0.09 s



Wall heat fluxes [W]
movingWall -0.339528 3.25261e-15 -0.289745 -0.629274
left 0.040381 4.16232e-16 0.266287 0.306668
right -0.0387869 -1.54575e-16 -0.052183 -0.0909699
bottom -0.0748673 0 0.0756415 0.000774171
movingWall2 -0.279149 -3.2381e-16 0.285822 0.0066724
left2 -0.126947 1.87461e-15 0.231667 0.104719
right2 -0.668715 3.22262e-15 -0.752751 -1.42147
bottom2 -0.229574 0 0.235262 0.0056885
frontAndBack 0 0 0 0
sum -1.71719 8.28768e-15 -4.57679e-07 -1.71719


Wall heat fluxes [W]
topAndBottom 0 0 0 0
left 0 0 0 0
right -0.124044 0 0 -0.124044
frontAndBack 0 0 0 0
sum -0.124044 0 0 -0.124044

Time = 27

DILUPBiCG:  Solving for Ux, Initial residual = 0.0124925, Final residual = 2.30591e-08, No Iterations 3
DILUPBiCG:  Solving for Uy, Initial residual = 0.0282025, Final residual = 2.87445e-06, No Iterations 2
DICPCG:  Solving for p_rgh, Initial residual = 0.0546124, Final residual = 0.000440277, No Iterations 11
time step continuity errors : sum local = 0.000679094, global = 6.18069e-17, cumulative = -1.75974e-16
DILUPBiCG:  Solving for epsilon, Initial residual = 0.0116758, Final residual = 1.04082e-06, No Iterations 3
DILUPBiCG:  Solving for k, Initial residual = 0.0404621, Final residual = 0.000100804, No Iterations 2
DICPCG:  Solving for G, Initial residual = 0.00916545, Final residual = 0.000797778, No Iterations 11
BiCG:  Solving for T+T, Initial residual = 0.00233844, Final residual = 0.000203622, No Iterations 1
ExecutionTime = 0.09 s



Wall heat fluxes [W]
movingWall -0.33334 -6.50521e-16 -0.288648 -0.621988
left 0.0425723 1.04058e-16 0.267379 0.309951
right -0.0390001 -1.94233e-16 -0.0539308 -0.092931
bottom -0.0744755 0 0.0752003 0.000724756
movingWall2 -0.273988 3.29852e-16 0.280954 0.00696666
left2 -0.123702 2.45253e-15 0.230961 0.107258
right2 -0.659516 2.65392e-15 -0.744279 -1.4038
bottom2 -0.226301 0 0.232364 0.00606259
frontAndBack 0 0 0 0
sum -1.68775 4.69561e-15 -3.72213e-08 -1.68775


Wall heat fluxes [W]
topAndBottom 0 0 0 0
left 0 0 0 0
right -0.120973 0 0 -0.120973
frontAndBack 0 0 0 0
sum -0.120973 0 0 -0.120973

Time = 28

DILUPBiCG:  Solving for Ux, Initial residual = 0.0120919, Final residual = 7.64868e-06, No Iterations 2
DILUPBiCG:  Solving for Uy, Initial residual = 0.0267741, Final residual = 2.93124e-06, No Iterations 2
DICPCG:  Solving for p_rgh, Initial residual = 0.0546629, Final residual = 0.000441609, No Iterations 11
time step continuity errors : sum local = 0.000677085, global = -4.12929e-17, cumulative = -2.17267e-16
DILUPBiCG:  Solving for epsilon, Initial residual = 0.01178, Final residual = 9.64404e-07, No Iterations 3
DILUPBiCG:  Solving for k, Initial residual = 0.039381, Final residual = 0.000101248, No Iterations 2
DICPCG:  Solving for G, Initial residual = 0.00958083, Final residual = 0.000893647, No Iterations 11
BiCG:  Solving for T+T, Initial residual = 0.00231317, Final residual = 0.000201186, No Iterations 1
ExecutionTime = 0.1 s



Wall heat fluxes [W]
movingWall -0.326798 -1.30104e-15 -0.287551 -0.614349
left 0.0451796 -1.04058e-16 0.26847 0.31365
right -0.0392063 -2.70132e-16 -0.0557767 -0.094983
bottom -0.0741521 0 0.0748573 0.000705239
movingWall2 -0.268766 -1.29996e-15 0.275956 0.00718918
left2 -0.120501 2.12946e-15 0.230219 0.109718
right2 -0.650342 -5.68698e-16 -0.735349 -1.38569
bottom2 -0.222776 0 0.229175 0.0063989
frontAndBack 0 0 0 0
sum -1.65736 -1.41443e-15 -3.84221e-07 -1.65736


Wall heat fluxes [W]
topAndBottom 0 0 0 0
left 0 0 0 0
right -0.11798 0 0 -0.11798
frontAndBack 0 0 0 0
sum -0.11798 0 0 -0.11798

Time = 29

DILUPBiCG:  Solving for Ux, Initial residual = 0.0117044, Final residual = 4.22454e-06, No Iterations 2
DILUPBiCG:  Solving for Uy, Initial residual = 0.0253126, Final residual = 3.05824e-06, No Iterations 2
DICPCG:  Solving for p_rgh, Initial residual = 0.0559168, Final residual = 0.000447957, No Iterations 11
time step continuity errors : sum local = 0.000681959, global = 3.26902e-17, cumulative = -1.84577e-16
DILUPBiCG:  Solving for epsilon, Initial residual = 0.0117686, Final residual = 8.12726e-05, No Iterations 2
DILUPBiCG:  Solving for k, Initial residual = 0.0383062, Final residual = 0.000100708, No Iterations 2
DICPCG:  Solving for G, Initial residual = 0.00996491, Final residual = 0.000623536, No Iterations 12
BiCG:  Solving for T+T, Initial residual = 0.00228352, Final residual = 0.000198312, No Iterations 1
ExecutionTime = 0.1 s



Wall heat fluxes [W]
movingWall -0.319941 0 -0.286442 -0.606383
left 0.048239 -3.81546e-16 0.269573 0.317812
right -0.0393926 -4.61089e-16 -0.0576965 -0.0970891
bottom -0.0738838 0 0.0745655 0.000681727
movingWall2 -0.263574 1.30719e-15 0.270901 0.00732694
left2 -0.117482 8.23207e-17 0.229427 0.111944
right2 -0.64094 7.58264e-16 -0.726029 -1.36697
bottom2 -0.218991 0 0.225701 0.00670985
frontAndBack 0 0 0 0
sum -1.62597 1.30514e-15 3.74679e-07 -1.62597


Wall heat fluxes [W]
topAndBottom 0 0 0 0
left 0 0 0 0
right -0.115063 0 0 -0.115063
frontAndBack 0 0 0 0
sum -0.115063 0 0 -0.115063

Time = 30

DILUPBiCG:  Solving for Ux, Initial residual = 0.0113735, Final residual = 3.24794e-06, No Iterations 2
DILUPBiCG:  Solving for Uy, Initial residual = 0.0239962, Final residual = 3.17605e-06, No Iterations 2
DICPCG:  Solving for p_rgh, Initial residual = 0.0573893, Final residual = 0.000481358, No Iterations 11
time step continuity errors : sum local = 0.0007285, global = -4.57927e-17, cumulative = -2.3037e-16
DILUPBiCG:  Solving for epsilon, Initial residual = 0.0116523, Final residual = 5.85666e-05, No Iterations 2
DILUPBiCG:  Solving for k, Initial residual = 0.037089, Final residual = 0.000100846, No Iterations 2
DICPCG:  Solving for G, Initial residual = 0.00991531, Final residual = 0.000709093, No Iterations 12
BiCG:  Solving for T+T, Initial residual = 0.00224658, Final residual = 0.000196063, No Iterations 1
ExecutionTime = 0.1 s



Wall heat fluxes [W]
movingWall -0.312818 -1.30104e-15 -0.285328 -0.598146
left 0.0517641 3.4686e-16 0.270681 0.322445
right -0.0395406 -3.80425e-17 -0.0596786 -0.0992192
bottom -0.073669 0 0.0743253 0.000656334
movingWall2 -0.258518 -6.55044e-16 0.265865 0.00734679
left2 -0.114803 -1.80991e-15 0.228647 0.113845
right2 -0.630974 -3.79132e-16 -0.716413 -1.34739
bottom2 -0.214932 0 0.221901 0.00696881
frontAndBack 0 0 0 0
sum -1.59349 -3.83631e-15 4.07652e-07 -1.59349


Wall heat fluxes [W]
topAndBottom 0 0 0 0
left 0 0 0 0
right -0.112219 0 0 -0.112219
frontAndBack 0 0 0 0
sum -0.112219 0 0 -0.112219

Time = 31

DILUPBiCG:  Solving for Ux, Initial residual = 0.0109803, Final residual = 2.83694e-06, No Iterations 2
DILUPBiCG:  Solving for Uy, Initial residual = 0.022598, Final residual = 3.24933e-06, No Iterations 2
DICPCG:  Solving for p_rgh, Initial residual = 0.0588935, Final residual = 0.000515514, No Iterations 11
time step continuity errors : sum local = 0.000781824, global = 7.74903e-17, cumulative = -1.5288e-16
DILUPBiCG:  Solving for epsilon, Initial residual = 0.0114834, Final residual = 4.35448e-05, No Iterations 2
DILUPBiCG:  Solving for k, Initial residual = 0.0356361, Final residual = 0.000103409, No Iterations 2
DICPCG:  Solving for G, Initial residual = 0.00999866, Final residual = 0.000705302, No Iterations 12
BiCG:  Solving for T+T, Initial residual = 0.00220326, Final residual = 0.000195248, No Iterations 1
ExecutionTime = 0.11 s



Wall heat fluxes [W]
movingWall -0.305498 2.60209e-15 -0.28422 -0.589718
left 0.0557459 -3.12174e-16 0.271783 0.327529
right -0.039632 1.03995e-15 -0.0616924 -0.101324
bottom -0.0735021 0 0.0741295 0.000627419
movingWall2 -0.25373 9.78266e-16 0.26095 0.00722018
left2 -0.112649 3.29563e-16 0.227941 0.115292
right2 -0.620549 7.58264e-16 -0.706636 -1.32718
bottom2 -0.210586 0 0.217745 0.00715874
frontAndBack 0 0 0 0
sum -1.5604 5.39595e-15 4.48218e-07 -1.5604


Wall heat fluxes [W]
topAndBottom 0 0 0 0
left 0 0 0 0
right -0.109445 0 0 -0.109445
frontAndBack 0 0 0 0
sum -0.109445 0 0 -0.109445

Time = 32

DILUPBiCG:  Solving for Ux, Initial residual = 0.0105851, Final residual = 2.68843e-06, No Iterations 2
DILUPBiCG:  Solving for Uy, Initial residual = 0.0212862, Final residual = 3.3199e-06, No Iterations 2
DICPCG:  Solving for p_rgh, Initial residual = 0.0574456, Final residual = 0.000493158, No Iterations 11
time step continuity errors : sum local = 0.000750228, global = -1.12497e-16, cumulative = -2.65376e-16
DILUPBiCG:  Solving for epsilon, Initial residual = 0.0112572, Final residual = 3.3819e-05, No Iterations 2
DILUPBiCG:  Solving for k, Initial residual = 0.0340983, Final residual = 0.00011017, No Iterations 2
DICPCG:  Solving for G, Initial residual = 0.00982476, Final residual = 0.000689929, No Iterations 12
BiCG:  Solving for T+T, Initial residual = 0.00215596, Final residual = 0.000195131, No Iterations 1
ExecutionTime = 0.11 s



Wall heat fluxes [W]
movingWall -0.298047 -2.60209e-15 -0.283133 -0.58118
left 0.060145 -2.42802e-16 0.272864 0.333009
right -0.0396463 6.94297e-16 -0.0637012 -0.103348
bottom -0.0733783 0 0.0739704 0.0005921
movingWall2 -0.249283 -1.32046e-15 0.256282 0.00699871
left2 -0.110923 -4.91855e-16 0.22738 0.116458
right2 -0.609766 -4.54958e-15 -0.696864 -1.30663
bottom2 -0.205935 0 0.213202 0.00726745
frontAndBack 0 0 0 0
sum -1.52683 -8.51248e-15 4.47362e-07 -1.52683


Wall heat fluxes [W]
topAndBottom 0 0 0 0
left 0 0 0 0
right -0.106738 0 0 -0.106738
frontAndBack 0 0 0 0
sum -0.106738 0 0 -0.106738

Time = 33

DILUPBiCG:  Solving for Ux, Initial residual = 0.0101773, Final residual = 2.67546e-06, No Iterations 2
DILUPBiCG:  Solving for Uy, Initial residual = 0.0200886, Final residual = 3.36066e-06, No Iterations 2
DICPCG:  Solving for p_rgh, Initial residual = 0.0556903, Final residual = 0.000425042, No Iterations 11
time step continuity errors : sum local = 0.000644674, global = 7.27919e-18, cumulative = -2.58097e-16
DILUPBiCG:  Solving for epsilon, Initial residual = 0.0109768, Final residual = 2.77836e-05, No Iterations 2
DILUPBiCG:  Solving for k, Initial residual = 0.0326531, Final residual = 0.000121509, No Iterations 2
DICPCG:  Solving for G, Initial residual = 0.00949182, Final residual = 0.000658307, No Iterations 12
BiCG:  Solving for T+T, Initial residual = 0.00211829, Final residual = 0.000147128, No Iterations 3
ExecutionTime = 0.11 s



Wall heat fluxes [W]
movingWall -0.290419 1.30104e-15 -0.282086 -0.572506
left 0.0649369 1.7343e-16 0.273905 0.338842
right -0.0375352 6.87859e-20 -0.0656596 -0.103195
bottom -0.0732686 0 0.0738414 0.000572801
movingWall2 -0.245117 -3.33158e-16 0.251887 0.00677031
left2 -0.104044 -2.48551e-15 0.2271 0.123056
right2 -0.599066 3.79132e-16 -0.687261 -1.28633
bottom2 -0.200852 0 0.208274 0.0074224
frontAndBack 0 0 0 0
sum -1.48536 -9.64997e-16 4.31746e-07 -1.48536


Wall heat fluxes [W]
topAndBottom 0 0 0 0
left 0 0 0 0
right -0.0993697 0 0 -0.0993697
frontAndBack 0 0 0 0
sum -0.0993697 0 0 -0.0993697

Time = 34

DILUPBiCG:  Solving for Ux, Initial residual = 0.0115153, Final residual = 4.80966e-06, No Iterations 2
DILUPBiCG:  Solving for Uy, Initial residual = 0.0212308, Final residual = 5.11767e-06, No Iterations 2
DICPCG:  Solving for p_rgh, Initial residual = 0.0787535, Final residual = 0.000675826, No Iterations 6
time step continuity errors : sum local = 0.00125726, global = 9.39677e-18, cumulative = -2.487e-16
DILUPBiCG:  Solving for epsilon, Initial residual = 0.0105559, Final residual = 2.25435e-05, No Iterations 2
DILUPBiCG:  Solving for k, Initial residual = 0.0308949, Final residual = 0.000132575, No Iterations 2
DICPCG:  Solving for G, Initial residual = 0.00918613, Final residual = 0.000614817, No Iterations 12
BiCG:  Solving for T+T, Initial residual = 0.00211323, Final residual = 0.000209519, No Iterations 1
ExecutionTime = 0.11 s



Wall heat fluxes [W]
movingWall -0.283063 -1.30104e-15 -0.281073 -0.564136
left 0.0698517 0 0.274913 0.344764
right -0.039568 3.47173e-16 -0.0675569 -0.107125
bottom -0.0732514 0 0.0737176 0.000466149
movingWall2 -0.24007 6.61077e-16 0.247795 0.00772476
left2 -0.0984201 2.82637e-15 0.227139 0.128719
right2 -0.588533 -3.79132e-16 -0.677814 -1.26635
bottom2 -0.195669 0 0.202881 0.00721252
frontAndBack 0 0 0 0
sum -1.44872 2.15445e-15 4.60734e-07 -1.44872


Wall heat fluxes [W]
topAndBottom 0 0 0 0
left 0 0 0 0
right -0.0969382 0 0 -0.0969382
frontAndBack 0 0 0 0
sum -0.0969382 0 0 -0.0969382

Time = 35

DILUPBiCG:  Solving for Ux, Initial residual = 0.0110106, Final residual = 2.4845e-06, No Iterations 2
DILUPBiCG:  Solving for Uy, Initial residual = 0.0184533, Final residual = 3.58573e-06, No Iterations 2
DICPCG:  Solving for p_rgh, Initial residual = 0.0758965, Final residual = 0.00056991, No Iterations 11
time step continuity errors : sum local = 0.000839258, global = -6.19351e-17, cumulative = -3.10635e-16
DILUPBiCG:  Solving for epsilon, Initial residual = 0.0100789, Final residual = 2.09822e-05, No Iterations 2
DILUPBiCG:  Solving for k, Initial residual = 0.028845, Final residual = 0.000151783, No Iterations 2
DICPCG:  Solving for G, Initial residual = 0.0109799, Final residual = 0.000883917, No Iterations 12
BiCG:  Solving for T+T, Initial residual = 0.00205741, Final residual = 0.000194026, No Iterations 1
ExecutionTime = 0.12 s



Wall heat fluxes [W]
movingWall -0.275768 -2.60209e-15 -0.279425 -0.555193
left 0.0748993 2.42802e-16 0.276548 0.351447
right -0.0399953 -1.19092e-18 -0.0715601 -0.111555
bottom -0.0736307 0 0.0744378 0.000807021
movingWall2 -0.235267 -6.65764e-16 0.243534 0.00826734
left2 -0.0921821 -1.41668e-15 0.223452 0.13127
right2 -0.577823 -1.70609e-15 -0.666635 -1.24446
bottom2 -0.191515 0 0.199649 0.00813419
frontAndBack 0 0 0 0
sum -1.41128 -6.14901e-15 2.30337e-07 -1.41128


Wall heat fluxes [W]
topAndBottom 0 0 0 0
left 0 0 0 0
right -0.0945495 0 0 -0.0945495
frontAndBack 0 0 0 0
sum -0.0945495 0 0 -0.0945495

Time = 36

DILUPBiCG:  Solving for Ux, Initial residual = 0.0111094, Final residual = 2.17978e-06, No Iterations 2
DILUPBiCG:  Solving for Uy, Initial residual = 0.0173679, Final residual = 4.15471e-06, No Iterations 2
DICPCG:  Solving for p_rgh, Initial residual = 0.0603905, Final residual = 0.000579105, No Iterations 6
time step continuity errors : sum local = 0.000963907, global = -6.68362e-17, cumulative = -3.77471e-16
DILUPBiCG:  Solving for epsilon, Initial residual = 0.00956151, Final residual = 2.33274e-05, No Iterations 2
DILUPBiCG:  Solving for k, Initial residual = 0.0270257, Final residual = 0.000183674, No Iterations 2
DICPCG:  Solving for G, Initial residual = 0.0110642, Final residual = 0.000888886, No Iterations 11
BiCG:  Solving for T+T, Initial residual = 0.00200383, Final residual = 0.000172715, No Iterations 1
ExecutionTime = 0.12 s



Wall heat fluxes [W]
movingWall -0.268694 -6.50521e-16 -0.278345 -0.547039
left 0.0800405 9.01836e-16 0.277625 0.357665
right -0.0406475 7.8343e-17 -0.0731956 -0.113843
bottom -0.0735039 0 0.0739152 0.000411295
movingWall2 -0.23033 -1.33616e-15 0.238475 0.00814495
left2 -0.0881228 -2.92495e-15 0.22183 0.133707
right2 -0.567118 -1.32696e-15 -0.655162 -1.22228
bottom2 -0.187008 0 0.194856 0.00784827
frontAndBack 0 0 0 0
sum -1.37538 -5.25841e-15 -1.18565e-06 -1.37539


Wall heat fluxes [W]
topAndBottom 0 0 0 0
left 0 0 0 0
right -0.0922224 0 0 -0.0922224
frontAndBack 0 0 0 0
sum -0.0922224 0 0 -0.0922224

Time = 37

DILUPBiCG:  Solving for Ux, Initial residual = 0.0101332, Final residual = 2.05432e-06, No Iterations 2
DILUPBiCG:  Solving for Uy, Initial residual = 0.0163109, Final residual = 5.0322e-06, No Iterations 2
DICPCG:  Solving for p_rgh, Initial residual = 0.0523936, Final residual = 0.000413022, No Iterations 11
time step continuity errors : sum local = 0.00058649, global = -2.68668e-17, cumulative = -4.04338e-16
DILUPBiCG:  Solving for epsilon, Initial residual = 0.00911761, Final residual = 2.88257e-05, No Iterations 2
DILUPBiCG:  Solving for k, Initial residual = 0.025417, Final residual = 8.2229e-05, No Iterations 3
DICPCG:  Solving for G, Initial residual = 0.0110056, Final residual = 0.000829996, No Iterations 12
BiCG:  Solving for T+T, Initial residual = 0.00195626, Final residual = 0.000169426, No Iterations 1
ExecutionTime = 0.12 s



Wall heat fluxes [W]
movingWall -0.262016 1.30104e-15 -0.277174 -0.53919
left 0.085136 7.63092e-16 0.278787 0.363923
right -0.0408956 7.75871e-16 -0.0758802 -0.116776
bottom -0.0736371 0 0.0742674 0.000630339
movingWall2 -0.225836 -2.86232e-18 0.233928 0.0080922
left2 -0.084381 -1.84384e-15 0.218605 0.134224
right2 -0.556368 -4.36002e-15 -0.643431 -1.1998
bottom2 -0.182816 0 0.190898 0.00808187
frontAndBack 0 0 0 0
sum -1.34081 -3.36671e-15 2.25128e-07 -1.34081


Wall heat fluxes [W]
topAndBottom 0 0 0 0
left 0 0 0 0
right -0.089952 0 0 -0.089952
frontAndBack 0 0 0 0
sum -0.089952 0 0 -0.089952

Time = 38

DILUPBiCG:  Solving for Ux, Initial residual = 0.0100014, Final residual = 2.30771e-06, No Iterations 2
DILUPBiCG:  Solving for Uy, Initial residual = 0.0151922, Final residual = 6.09081e-06, No Iterations 2
DICPCG:  Solving for p_rgh, Initial residual = 0.0465765, Final residual = 0.000275485, No Iterations 6
time step continuity errors : sum local = 0.000473952, global = -1.39496e-16, cumulative = -5.43834e-16
DILUPBiCG:  Solving for epsilon, Initial residual = 0.00882912, Final residual = 3.83253e-05, No Iterations 2
DILUPBiCG:  Solving for k, Initial residual = 0.0240312, Final residual = 0.000131549, No Iterations 2
DICPCG:  Solving for G, Initial residual = 0.0103104, Final residual = 0.000617578, No Iterations 12
BiCG:  Solving for T+T, Initial residual = 0.00191517, Final residual = 0.00016677, No Iterations 1
ExecutionTime = 0.12 s



Wall heat fluxes [W]
movingWall -0.255635 -3.25261e-15 -0.27605 -0.531686
left 0.0901361 -7.28406e-16 0.279905 0.370041
right -0.0411555 -2.31624e-16 -0.0779929 -0.119148
bottom -0.073593 0 0.0741385 0.000545419
movingWall2 -0.221317 -6.75323e-16 0.229021 0.00770421
left2 -0.081379 -1.55367e-15 0.217127 0.135748
right2 -0.545671 -1.51653e-15 -0.632158 -1.17783
bottom2 -0.178303 0 0.186011 0.00770775
frontAndBack 0 0 0 0
sum -1.30692 -7.95816e-15 6.29736e-07 -1.30692


Wall heat fluxes [W]
topAndBottom 0 0 0 0
left 0 0 0 0
right -0.0877378 0 0 -0.0877378
frontAndBack 0 0 0 0
sum -0.0877378 0 0 -0.0877378

Time = 39

DILUPBiCG:  Solving for Ux, Initial residual = 0.00973317, Final residual = 2.24223e-06, No Iterations 2
DILUPBiCG:  Solving for Uy, Initial residual = 0.0142457, Final residual = 6.53049e-06, No Iterations 2
DICPCG:  Solving for p_rgh, Initial residual = 0.0426326, Final residual = 0.000369897, No Iterations 6
time step continuity errors : sum local = 0.000663436, global = -6.57774e-17, cumulative = -6.09611e-16
DILUPBiCG:  Solving for epsilon, Initial residual = 0.00858264, Final residual = 5.39892e-05, No Iterations 2
DILUPBiCG:  Solving for k, Initial residual = 0.0226606, Final residual = 7.39694e-05, No Iterations 2
DICPCG:  Solving for G, Initial residual = 0.00963538, Final residual = 0.00059416, No Iterations 12
BiCG:  Solving for T+T, Initial residual = 0.00188104, Final residual = 0.00016429, No Iterations 1
ExecutionTime = 0.13 s



Wall heat fluxes [W]
movingWall -0.249581 -2.60209e-15 -0.274922 -0.524503
left 0.0949162 -6.9372e-17 0.281027 0.375943
right -0.0412719 -2.30084e-18 -0.0802875 -0.121559
bottom -0.0735513 0 0.0741825 0.000631205
movingWall2 -0.217065 -6.72911e-16 0.224449 0.00738397
left2 -0.0787139 -7.15434e-16 0.215449 0.136735
right2 -0.536016 -5.68698e-16 -0.621329 -1.15735
bottom2 -0.17381 0 0.181431 0.00762151
frontAndBack 0 0 0 0
sum -1.27509 -4.6308e-15 5.70749e-07 -1.27509


Wall heat fluxes [W]
topAndBottom 0 0 0 0
left 0 0 0 0
right -0.0855784 0 0 -0.0855784
frontAndBack 0 0 0 0
sum -0.0855784 0 0 -0.0855784

Time = 40

DILUPBiCG:  Solving for Ux, Initial residual = 0.00961271, Final residual = 2.21528e-06, No Iterations 2
DILUPBiCG:  Solving for Uy, Initial residual = 0.0135187, Final residual = 7.05358e-06, No Iterations 2
DICPCG:  Solving for p_rgh, Initial residual = 0.0402628, Final residual = 0.000203612, No Iterations 11
time step continuity errors : sum local = 0.00026573, global = 4.42045e-17, cumulative = -5.65407e-16
DILUPBiCG:  Solving for epsilon, Initial residual = 0.0082921, Final residual = 7.6613e-05, No Iterations 2
DILUPBiCG:  Solving for k, Initial residual = 0.0213988, Final residual = 8.1402e-05, No Iterations 2
DICPCG:  Solving for G, Initial residual = 0.00910428, Final residual = 0.000585328, No Iterations 12
BiCG:  Solving for T+T, Initial residual = 0.0018437, Final residual = 0.000161754, No Iterations 1
ExecutionTime = 0.13 s



Wall heat fluxes [W]
movingWall -0.243963 1.95156e-15 -0.273819 -0.517782
left 0.0994336 -7.63092e-16 0.282125 0.381559
right -0.0413706 3.89374e-16 -0.0823373 -0.123708
bottom -0.0733779 0 0.0740312 0.000653257
movingWall2 -0.21303 -3.33762e-16 0.220037 0.00700629
left2 -0.0763972 7.59034e-16 0.2144 0.138003
right2 -0.526512 7.58264e-16 -0.610981 -1.13749
bottom2 -0.169177 0 0.176545 0.00736758
frontAndBack 0 0 0 0
sum -1.24439 2.76138e-15 5.32594e-07 -1.24439


Wall heat fluxes [W]
topAndBottom 0 0 0 0
left 0 0 0 0
right -0.0834721 0 0 -0.0834721
frontAndBack 0 0 0 0
sum -0.0834721 0 0 -0.0834721

Time = 41

DILUPBiCG:  Solving for Ux, Initial residual = 0.00938971, Final residual = 2.12651e-06, No Iterations 2
DILUPBiCG:  Solving for Uy, Initial residual = 0.0128424, Final residual = 6.80023e-06, No Iterations 2
DICPCG:  Solving for p_rgh, Initial residual = 0.038155, Final residual = 0.000147288, No Iterations 6
time step continuity errors : sum local = 0.000191858, global = -9.05266e-17, cumulative = -6.55934e-16
DILUPBiCG:  Solving for epsilon, Initial residual = 0.00804475, Final residual = 1.69099e-06, No Iterations 3
DILUPBiCG:  Solving for k, Initial residual = 0.0202615, Final residual = 0.000118797, No Iterations 2
DICPCG:  Solving for G, Initial residual = 0.00864129, Final residual = 0.000582347, No Iterations 12
BiCG:  Solving for T+T, Initial residual = 0.00180521, Final residual = 0.000159061, No Iterations 1
ExecutionTime = 0.13 s



Wall heat fluxes [W]
movingWall -0.238776 -4.87891e-15 -0.272718 -0.511494
left 0.103688 3.4686e-17 0.283223 0.386911
right -0.0414171 -7.6545e-17 -0.0843399 -0.125757
bottom -0.0731467 0 0.0738346 0.000687963
movingWall2 -0.209263 1.79713e-18 0.215927 0.00666398
left2 -0.0742508 -5.47368e-16 0.213446 0.139195
right2 -0.516636 0 -0.601087 -1.11772
bottom2 -0.164511 0 0.171714 0.00720254
frontAndBack 0 0 0 0
sum -1.21431 -5.46634e-15 4.56319e-07 -1.21431


Wall heat fluxes [W]
topAndBottom 0 0 0 0
left 0 0 0 0
right -0.0814169 0 0 -0.0814169
frontAndBack 0 0 0 0
sum -0.0814169 0 0 -0.0814169

Time = 42

DILUPBiCG:  Solving for Ux, Initial residual = 0.0091742, Final residual = 2.07603e-06, No Iterations 2
DILUPBiCG:  Solving for Uy, Initial residual = 0.0122741, Final residual = 5.99755e-06, No Iterations 2
DICPCG:  Solving for p_rgh, Initial residual = 0.0362502, Final residual = 0.000156446, No Iterations 6
time step continuity errors : sum local = 0.000237, global = 3.29549e-17, cumulative = -6.22979e-16
DILUPBiCG:  Solving for epsilon, Initial residual = 0.00788924, Final residual = 1.66586e-06, No Iterations 3
DILUPBiCG:  Solving for k, Initial residual = 0.0194774, Final residual = 0.000192605, No Iterations 2
DICPCG:  Solving for G, Initial residual = 0.00820986, Final residual = 0.00055459, No Iterations 12
BiCG:  Solving for T+T, Initial residual = 0.00176776, Final residual = 0.000156219, No Iterations 1
ExecutionTime = 0.13 s



Wall heat fluxes [W]
movingWall -0.233991 9.75782e-16 -0.271636 -0.505627
left 0.107607 -1.35275e-15 0.284301 0.391908
right -0.0414493 2.34074e-16 -0.0862131 -0.127662
bottom -0.0728197 0 0.0735489 0.000729187
movingWall2 -0.205738 5.74682e-19 0.21208 0.00634145
left2 -0.0722596 1.90313e-15 0.212744 0.140485
right2 -0.506597 9.4783e-16 -0.591615 -1.09821
bottom2 -0.159784 0 0.166791 0.00700717
frontAndBack 0 0 0 0
sum -1.18503 2.70863e-15 4.2297e-07 -1.18503


Wall heat fluxes [W]
topAndBottom 0 0 0 0
left 0 0 0 0
right -0.0794113 0 0 -0.0794113
frontAndBack 0 0 0 0
sum -0.0794113 0 0 -0.0794113

Time = 43

DILUPBiCG:  Solving for Ux, Initial residual = 0.00891948, Final residual = 2.0068e-06, No Iterations 2
DILUPBiCG:  Solving for Uy, Initial residual = 0.0117774, Final residual = 5.48624e-06, No Iterations 2
DICPCG:  Solving for p_rgh, Initial residual = 0.0337024, Final residual = 0.000173641, No Iterations 6
time step continuity errors : sum local = 0.00027982, global = -3.96468e-17, cumulative = -6.62625e-16
DILUPBiCG:  Solving for epsilon, Initial residual = 0.00775422, Final residual = 1.57524e-06, No Iterations 3
DILUPBiCG:  Solving for k, Initial residual = 0.0188125, Final residual = 7.82642e-06, No Iterations 3
DICPCG:  Solving for G, Initial residual = 0.00782864, Final residual = 0.000538945, No Iterations 12
BiCG:  Solving for T+T, Initial residual = 0.0017342, Final residual = 0.000152896, No Iterations 1
ExecutionTime = 0.14 s



Wall heat fluxes [W]
movingWall -0.229716 -2.92735e-15 -0.270556 -0.500272
left 0.111243 9.36522e-16 0.285379 0.396621
right -0.0414654 -3.12137e-16 -0.0880036 -0.129469
bottom -0.0724207 0 0.0731808 0.000760049
movingWall2 -0.202488 -6.81912e-16 0.208509 0.0060209
left2 -0.0703586 8.04323e-16 0.212113 0.141754
right2 -0.496602 -7.58264e-16 -0.582513 -1.07911
bottom2 -0.155063 0 0.161892 0.00682868
frontAndBack 0 0 0 0
sum -1.15687 -2.93881e-15 3.68885e-07 -1.15687


Wall heat fluxes [W]
topAndBottom 0 0 0 0
left 0 0 0 0
right -0.0774541 0 0 -0.0774541
frontAndBack 0 0 0 0
sum -0.0774541 0 0 -0.0774541

Time = 44

DILUPBiCG:  Solving for Ux, Initial residual = 0.00873203, Final residual = 1.96277e-06, No Iterations 2
DILUPBiCG:  Solving for Uy, Initial residual = 0.0113851, Final residual = 5.01141e-06, No Iterations 2
DICPCG:  Solving for p_rgh, Initial residual = 0.031677, Final residual = 0.000208672, No Iterations 6
time step continuity errors : sum local = 0.000342584, global = 2.46831e-17, cumulative = -6.37942e-16
DILUPBiCG:  Solving for epsilon, Initial residual = 0.00761244, Final residual = 1.4623e-06, No Iterations 3
DILUPBiCG:  Solving for k, Initial residual = 0.0182082, Final residual = 7.084e-06, No Iterations 3
DICPCG:  Solving for G, Initial residual = 0.00747373, Final residual = 0.000515828, No Iterations 12
BiCG:  Solving for T+T, Initial residual = 0.00169968, Final residual = 0.000149184, No Iterations 1
ExecutionTime = 0.14 s



Wall heat fluxes [W]
movingWall -0.22574 -6.50521e-16 -0.269483 -0.495222
left 0.114512 -6.59034e-16 0.286449 0.400961
right -0.0414749 0 -0.08971 -0.131185
bottom -0.0719377 0 0.0727436 0.000805957
movingWall2 -0.199447 6.82531e-16 0.205224 0.00577749
left2 -0.0685673 6.77132e-16 0.211547 0.14298
right2 -0.486663 -9.4783e-16 -0.573766 -1.06043
bottom2 -0.150296 0 0.156995 0.0066986
frontAndBack 0 0 0 0
sum -1.12961 -8.97722e-16 3.38216e-07 -1.12961


Wall heat fluxes [W]
topAndBottom 0 0 0 0
left 0 0 0 0
right -0.0755441 0 0 -0.0755441
frontAndBack 0 0 0 0
sum -0.0755441 0 0 -0.0755441

Time = 45

DILUPBiCG:  Solving for Ux, Initial residual = 0.00855017, Final residual = 1.9301e-06, No Iterations 2
DILUPBiCG:  Solving for Uy, Initial residual = 0.0111023, Final residual = 4.577e-06, No Iterations 2
DICPCG:  Solving for p_rgh, Initial residual = 0.0286269, Final residual = 0.000260572, No Iterations 6
time step continuity errors : sum local = 0.000429586, global = -8.00711e-18, cumulative = -6.45949e-16
DILUPBiCG:  Solving for epsilon, Initial residual = 0.00754259, Final residual = 1.42496e-06, No Iterations 3
DILUPBiCG:  Solving for k, Initial residual = 0.0176919, Final residual = 6.77932e-06, No Iterations 3
DICPCG:  Solving for G, Initial residual = 0.00718919, Final residual = 0.00049813, No Iterations 12
BiCG:  Solving for T+T, Initial residual = 0.00166602, Final residual = 0.000145976, No Iterations 1
ExecutionTime = 0.14 s



Wall heat fluxes [W]
movingWall -0.222119 3.25261e-16 -0.268406 -0.490525
left 0.117459 -1.31807e-15 0.287523 0.404982
right -0.0414821 -7.82614e-17 -0.0913352 -0.132817
bottom -0.071379 0 0.0722184 0.000839382
movingWall2 -0.196608 6.81877e-16 0.202152 0.00554437
left2 -0.0668439 -4.6534e-16 0.211057 0.144213
right2 -0.476839 7.58264e-16 -0.565293 -1.04213
bottom2 -0.145508 0 0.152084 0.00657622
frontAndBack 0 0 0 0
sum -1.10332 -9.62675e-17 3.12167e-07 -1.10332


Wall heat fluxes [W]
topAndBottom 0 0 0 0
left 0 0 0 0
right -0.0736803 0 0 -0.0736803
frontAndBack 0 0 0 0
sum -0.0736803 0 0 -0.0736803

Time = 46

DILUPBiCG:  Solving for Ux, Initial residual = 0.00839843, Final residual = 1.9096e-06, No Iterations 2
DILUPBiCG:  Solving for Uy, Initial residual = 0.0109235, Final residual = 4.24176e-06, No Iterations 2
DICPCG:  Solving for p_rgh, Initial residual = 0.0271559, Final residual = 0.000153482, No Iterations 11
time step continuity errors : sum local = 0.000191767, global = 6.9814e-17, cumulative = -5.76135e-16
DILUPBiCG:  Solving for epsilon, Initial residual = 0.00751158, Final residual = 1.4342e-06, No Iterations 3
DILUPBiCG:  Solving for k, Initial residual = 0.0172699, Final residual = 6.74451e-06, No Iterations 3
DICPCG:  Solving for G, Initial residual = 0.00692918, Final residual = 0.000478408, No Iterations 12
BiCG:  Solving for T+T, Initial residual = 0.00163421, Final residual = 0.000142706, No Iterations 1
ExecutionTime = 0.15 s



Wall heat fluxes [W]
movingWall -0.218822 9.75782e-16 -0.26733 -0.486152
left 0.12011 1.52618e-15 0.288598 0.408707
right -0.0414806 -7.66021e-17 -0.0928942 -0.134375
bottom -0.0707625 0 0.0716268 0.000864288
movingWall2 -0.193947 -2.2197e-18 0.199293 0.00534589
left2 -0.0651596 1.01979e-15 0.210616 0.145456
right2 -0.467167 1.89566e-16 -0.557074 -1.02424
bottom2 -0.1407 0 0.147166 0.0064659
frontAndBack 0 0 0 0
sum -1.07793 3.6325e-15 3.01045e-07 -1.07793


Wall heat fluxes [W]
topAndBottom 0 0 0 0
left 0 0 0 0
right -0.0718621 0 0 -0.0718621
frontAndBack 0 0 0 0
sum -0.0718621 0 0 -0.0718621

Time = 47

DILUPBiCG:  Solving for Ux, Initial residual = 0.00826933, Final residual = 1.88634e-06, No Iterations 2
DILUPBiCG:  Solving for Uy, Initial residual = 0.0107553, Final residual = 4.14929e-06, No Iterations 2
DICPCG:  Solving for p_rgh, Initial residual = 0.0266765, Final residual = 0.000196076, No Iterations 6
time step continuity errors : sum local = 0.000274276, global = -7.08728e-17, cumulative = -6.47008e-16
DILUPBiCG:  Solving for epsilon, Initial residual = 0.00754265, Final residual = 1.51677e-06, No Iterations 3
DILUPBiCG:  Solving for k, Initial residual = 0.017006, Final residual = 7.0679e-06, No Iterations 3
DICPCG:  Solving for G, Initial residual = 0.00669683, Final residual = 0.000460717, No Iterations 12
BiCG:  Solving for T+T, Initial residual = 0.00160868, Final residual = 0.000139942, No Iterations 1
ExecutionTime = 0.15 s



Wall heat fluxes [W]
movingWall -0.21582 -4.22839e-15 -0.266257 -0.482077
left 0.122482 -1.4915e-15 0.28967 0.412152
right -0.041467 7.69606e-17 -0.094396 -0.135863
bottom -0.0700878 0 0.0709831 0.000895323
movingWall2 -0.191437 -9.40885e-19 0.196612 0.00517543
left2 -0.0635086 -3.81686e-16 0.210209 0.146701
right2 -0.457788 1.70609e-15 -0.549072 -1.00686
bottom2 -0.135855 0 0.142251 0.00639619
frontAndBack 0 0 0 0
sum -1.05348 -4.31946e-15 2.88647e-07 -1.05348


Wall heat fluxes [W]
topAndBottom 0 0 0 0
left 0 0 0 0
right -0.0700886 0 0 -0.0700886
frontAndBack 0 0 0 0
sum -0.0700886 0 0 -0.0700886

Time = 48

DILUPBiCG:  Solving for Ux, Initial residual = 0.0081506, Final residual = 1.85881e-06, No Iterations 2
DILUPBiCG:  Solving for Uy, Initial residual = 0.0106339, Final residual = 4.04567e-06, No Iterations 2
DICPCG:  Solving for p_rgh, Initial residual = 0.026865, Final residual = 0.000208042, No Iterations 6
time step continuity errors : sum local = 0.000297545, global = 2.55431e-17, cumulative = -6.21465e-16
DILUPBiCG:  Solving for epsilon, Initial residual = 0.00756814, Final residual = 7.14511e-05, No Iterations 2
DILUPBiCG:  Solving for k, Initial residual = 0.0169375, Final residual = 6.56396e-06, No Iterations 3
DICPCG:  Solving for G, Initial residual = 0.00651027, Final residual = 0.000443422, No Iterations 12
BiCG:  Solving for T+T, Initial residual = 0.0015848, Final residual = 0.000137807, No Iterations 1
ExecutionTime = 0.15 s



Wall heat fluxes [W]
movingWall -0.213072 9.75782e-16 -0.265179 -0.478251
left 0.124602 1.2487e-15 0.290746 0.415348
right -0.0414439 -3.90424e-16 -0.0958489 -0.137293
bottom -0.0693734 0 0.0702819 0.000908458
movingWall2 -0.18906 1.8216e-18 0.194104 0.00504367
left2 -0.061888 -1.4948e-15 0.209831 0.147943
right2 -0.449839 5.68698e-16 -0.54124 -0.99108
bottom2 -0.13096 0 0.137306 0.00634608
frontAndBack 0 0 0 0
sum -1.03104 9.09777e-16 2.86305e-07 -1.03103


Wall heat fluxes [W]
topAndBottom 0 0 0 0
left 0 0 0 0
right -0.0683593 0 0 -0.0683593
frontAndBack 0 0 0 0
sum -0.0683593 0 0 -0.0683593

Time = 49

DILUPBiCG:  Solving for Ux, Initial residual = 0.00803744, Final residual = 1.79656e-06, No Iterations 2
DILUPBiCG:  Solving for Uy, Initial residual = 0.0104837, Final residual = 3.99452e-06, No Iterations 2
DICPCG:  Solving for p_rgh, Initial residual = 0.026566, Final residual = 0.000252079, No Iterations 6
time step continuity errors : sum local = 0.000381141, global = 4.89691e-18, cumulative = -6.16568e-16
DILUPBiCG:  Solving for epsilon, Initial residual = 0.00757353, Final residual = 6.5383e-05, No Iterations 2
DILUPBiCG:  Solving for k, Initial residual = 0.0168513, Final residual = 6.22285e-06, No Iterations 3
DICPCG:  Solving for G, Initial residual = 0.00635288, Final residual = 0.000425993, No Iterations 12
BiCG:  Solving for T+T, Initial residual = 0.00155734, Final residual = 0.000135456, No Iterations 1
ExecutionTime = 0.15 s



Wall heat fluxes [W]
movingWall -0.210543 1.6263e-15 -0.264101 -0.474644
left 0.126503 -6.59034e-16 0.291822 0.418325
right -0.0414067 4.70221e-16 -0.0972752 -0.138682
bottom -0.068635 0 0.0695545 0.000919512
movingWall2 -0.186788 -5.1769e-16 0.191729 0.00494136
left2 -0.060291 -5.15036e-16 0.209475 0.149184
right2 -0.442758 0 -0.533538 -0.976295
bottom2 -0.125985 0 0.132333 0.00634796
frontAndBack 0 0 0 0
sum -1.0099 4.04765e-16 2.8859e-07 -1.0099


Wall heat fluxes [W]
topAndBottom 0 0 0 0
left 0 0 0 0
right -0.0666723 0 0 -0.0666723
frontAndBack 0 0 0 0
sum -0.0666723 0 0 -0.0666723

Time = 50

DILUPBiCG:  Solving for Ux, Initial residual = 0.00794599, Final residual = 1.76579e-06, No Iterations 2
DILUPBiCG:  Solving for Uy, Initial residual = 0.0104059, Final residual = 3.81811e-06, No Iterations 2
DICPCG:  Solving for p_rgh, Initial residual = 0.0270497, Final residual = 0.00017683, No Iterations 7
time step continuity errors : sum local = 0.000312118, global = 6.1658e-17, cumulative = -5.5491e-16
DILUPBiCG:  Solving for epsilon, Initial residual = 0.00756712, Final residual = 6.0808e-05, No Iterations 2
DILUPBiCG:  Solving for k, Initial residual = 0.0167168, Final residual = 6.65542e-06, No Iterations 3
DICPCG:  Solving for G, Initial residual = 0.00623107, Final residual = 0.000402367, No Iterations 12
BiCG:  Solving for T+T, Initial residual = 0.00152882, Final residual = 0.000132647, No Iterations 1
ExecutionTime = 0.16 s



Wall heat fluxes [W]
movingWall -0.2082 2.60209e-15 -0.263025 -0.471225
left 0.128218 -4.50918e-16 0.292897 0.421116
right -0.041358 3.12941e-16 -0.0986772 -0.140035
bottom -0.0678838 0 0.0688044 0.000920614
movingWall2 -0.18461 1.71691e-16 0.189479 0.00486908
left2 -0.0587222 -6.00826e-16 0.20916 0.150438
right2 -0.435521 1.70609e-15 -0.525915 -0.961436
bottom2 -0.120887 0 0.127276 0.00638885
frontAndBack 0 0 0 0
sum -0.988964 3.74107e-15 2.97915e-07 -0.988963


Wall heat fluxes [W]
topAndBottom 0 0 0 0
left 0 0 0 0
right -0.0650259 0 0 -0.0650259
frontAndBack 0 0 0 0
sum -0.0650259 0 0 -0.0650259

Time = 51

DILUPBiCG:  Solving for Ux, Initial residual = 0.00780798, Final residual = 1.70221e-06, No Iterations 2
DILUPBiCG:  Solving for Uy, Initial residual = 0.0102671, Final residual = 3.85509e-06, No Iterations 2
DICPCG:  Solving for p_rgh, Initial residual = 0.0278536, Final residual = 0.000222093, No Iterations 7
time step continuity errors : sum local = 0.000387294, global = -2.46169e-17, cumulative = -5.79527e-16
DILUPBiCG:  Solving for epsilon, Initial residual = 0.00760191, Final residual = 5.66627e-05, No Iterations 2
DILUPBiCG:  Solving for k, Initial residual = 0.0167045, Final residual = 1.06372e-05, No Iterations 3
DICPCG:  Solving for G, Initial residual = 0.00613722, Final residual = 0.000357404, No Iterations 12
BiCG:  Solving for T+T, Initial residual = 0.00150401, Final residual = 0.00012978, No Iterations 1
ExecutionTime = 0.16 s



Wall heat fluxes [W]
movingWall -0.206019 0 -0.26195 -0.467969
left 0.129788 -1.14464e-15 0.293971 0.423759
right -0.0412974 -8.59176e-16 -0.10007 -0.141368
bottom -0.0671376 0 0.0680501 0.000912465
movingWall2 -0.182518 -5.19225e-16 0.18734 0.00482204
left2 -0.0571846 8.63718e-17 0.208882 0.151698
right2 -0.428317 1.70609e-15 -0.518326 -0.946643
bottom2 -0.115645 0 0.122104 0.00645902
frontAndBack 0 0 0 0
sum -0.96833 -7.30574e-16 3.08201e-07 -0.96833


Wall heat fluxes [W]
topAndBottom 0 0 0 0
left 0 0 0 0
right -0.0634197 0 0 -0.0634197
frontAndBack 0 0 0 0
sum -0.0634197 0 0 -0.0634197

Time = 52

DILUPBiCG:  Solving for Ux, Initial residual = 0.00770543, Final residual = 1.6588e-06, No Iterations 2
DILUPBiCG:  Solving for Uy, Initial residual = 0.0101608, Final residual = 4.38861e-06, No Iterations 2
DICPCG:  Solving for p_rgh, Initial residual = 0.0287873, Final residual = 0.000241992, No Iterations 7
time step continuity errors : sum local = 0.000413483, global = 3.46754e-17, cumulative = -5.44852e-16
DILUPBiCG:  Solving for epsilon, Initial residual = 0.0076601, Final residual = 5.36375e-05, No Iterations 2
DILUPBiCG:  Solving for k, Initial residual = 0.0166471, Final residual = 1.59598e-05, No Iterations 3
DICPCG:  Solving for G, Initial residual = 0.00604901, Final residual = 0.000488084, No Iterations 11
BiCG:  Solving for T+T, Initial residual = 0.001479, Final residual = 0.000126678, No Iterations 1
ExecutionTime = 0.16 s



Wall heat fluxes [W]
movingWall -0.203973 -1.6263e-15 -0.260881 -0.464854
left 0.131239 1.45681e-15 0.295038 0.426277
right -0.0412256 -3.10836e-16 -0.101462 -0.142688
bottom -0.0664049 0 0.0673058 0.000900924
movingWall2 -0.180498 -3.45013e-16 0.185295 0.00479672
left2 -0.0557279 8.70949e-17 0.208646 0.152918
right2 -0.421267 1.70609e-15 -0.510735 -0.932002
bottom2 -0.110258 0 0.116794 0.00653506
frontAndBack 0 0 0 0
sum -0.948115 9.67849e-16 1.19571e-08 -0.948115


Wall heat fluxes [W]
topAndBottom 0 0 0 0
left 0 0 0 0
right -0.0618524 0 0 -0.0618524
frontAndBack 0 0 0 0
sum -0.0618524 0 0 -0.0618524

Time = 53

DILUPBiCG:  Solving for Ux, Initial residual = 0.0076276, Final residual = 1.59563e-06, No Iterations 2
DILUPBiCG:  Solving for Uy, Initial residual = 0.0101038, Final residual = 4.96927e-06, No Iterations 2
DICPCG:  Solving for p_rgh, Initial residual = 0.0288932, Final residual = 0.000233915, No Iterations 7
time step continuity errors : sum local = 0.000388647, global = 3.01745e-17, cumulative = -5.14677e-16
DILUPBiCG:  Solving for epsilon, Initial residual = 0.00771563, Final residual = 5.16227e-05, No Iterations 2
DILUPBiCG:  Solving for k, Initial residual = 0.0164961, Final residual = 2.25679e-05, No Iterations 3
DICPCG:  Solving for G, Initial residual = 0.00611029, Final residual = 0.000446279, No Iterations 11
BiCG:  Solving for T+T, Initial residual = 0.00146112, Final residual = 0.000123578, No Iterations 1
ExecutionTime = 0.16 s



Wall heat fluxes [W]
movingWall -0.20204 -6.50521e-16 -0.25982 -0.461861
left 0.132598 -6.59034e-16 0.296098 0.428696
right -0.0411409 -7.80819e-17 -0.102856 -0.143997
bottom -0.0656929 0 0.0665781 0.000885173
movingWall2 -0.17854 -3.45143e-16 0.183323 0.00478313
left2 -0.0543256 2.59868e-15 0.208447 0.154121
right2 -0.414597 1.70609e-15 -0.503122 -0.917719
bottom2 -0.104685 0 0.111352 0.00666716
frontAndBack 0 0 0 0
sum -0.928424 2.57199e-15 -9.30122e-07 -0.928425


Wall heat fluxes [W]
topAndBottom 0 0 0 0
left 0 0 0 0
right -0.060324 0 0 -0.060324
frontAndBack 0 0 0 0
sum -0.060324 0 0 -0.060324

Time = 54

DILUPBiCG:  Solving for Ux, Initial residual = 0.00758, Final residual = 1.56741e-06, No Iterations 2
DILUPBiCG:  Solving for Uy, Initial residual = 0.0100329, Final residual = 5.12323e-06, No Iterations 2
[...]
left2 0.0433908 3.18879e-16 0.163724 0.207115
right2 -0.0561771 -8.29351e-17 -0.150944 -0.207122
bottom2 0.0134479 0 -0.0134479 2.33196e-08
frontAndBack 0 0 0 0
sum -6.74324e-06 -1.75203e-15 1.13458e-12 -6.74324e-06


Wall heat fluxes [W]
topAndBottom 0 0 0 0
left 0 0 0 0
right -5.96856e-12 0 0 -5.96856e-12
frontAndBack 0 0 0 0
sum -5.96856e-12 0 0 -5.96856e-12

Time = 988

DILUPBiCG:  Solving for Ux, Initial residual = 1.27285e-08, Final residual = 1.02917e-10, No Iterations 1
DILUPBiCG:  Solving for Uy, Initial residual = 9.61848e-09, Final residual = 5.22736e-11, No Iterations 1
DICPCG:  Solving for p_rgh, Initial residual = 3.27795e-08, Final residual = 1.33512e-10, No Iterations 6
time step continuity errors : sum local = 2.0713e-10, global = -1.53938e-17, cumulative = -1.68786e-15
DILUPBiCG:  Solving for epsilon, Initial residual = 7.40752e-09, Final residual = 2.34622e-11, No Iterations 2
DILUPBiCG:  Solving for k, Initial residual = 1.21873e-08, Final residual = 2.92372e-12, No Iterations 3
DICPCG:  Solving for G, Initial residual = 1.79662e-08, Final residual = 1.27838e-09, No Iterations 12
BiCG:  Solving for T+T, Initial residual = 1.11687e-08, Final residual = 3.41719e-10, No Iterations 1
ExecutionTime = 2.71 s



Wall heat fluxes [W]
movingWall -0.124795 1.30104e-15 -0.21375 -0.338545
left 0.2036 -3.4686e-16 0.34206 0.54566
right -0.0333822 3.21585e-16 -0.173733 -0.207115
bottom -0.0454229 0 0.0454229 1.19335e-09
movingWall2 -0.000668089 1.96439e-17 0.000668114 2.55983e-08
left2 0.0433908 4.55582e-16 0.163724 0.207115
right2 -0.0561771 -3.43588e-16 -0.150944 -0.207121
bottom2 0.0134479 0 -0.0134479 2.30362e-08
frontAndBack 0 0 0 0
sum -6.66128e-06 1.4074e-15 1.23487e-12 -6.66128e-06


Wall heat fluxes [W]
topAndBottom 0 0 0 0
left 0 0 0 0
right -5.93445e-12 0 0 -5.93445e-12
frontAndBack 0 0 0 0
sum -5.93445e-12 0 0 -5.93445e-12

Time = 989

DILUPBiCG:  Solving for Ux, Initial residual = 1.256e-08, Final residual = 1.01456e-10, No Iterations 1
DILUPBiCG:  Solving for Uy, Initial residual = 9.50198e-09, Final residual = 5.156e-11, No Iterations 1
DICPCG:  Solving for p_rgh, Initial residual = 3.24103e-08, Final residual = 1.41408e-10, No Iterations 6
time step continuity errors : sum local = 2.26376e-10, global = -1.83138e-17, cumulative = -1.70617e-15
DILUPBiCG:  Solving for epsilon, Initial residual = 7.31815e-09, Final residual = 2.31678e-11, No Iterations 2
DILUPBiCG:  Solving for k, Initial residual = 1.20406e-08, Final residual = 2.88828e-12, No Iterations 3
DICPCG:  Solving for G, Initial residual = 1.77471e-08, Final residual = 1.26286e-09, No Iterations 12
BiCG:  Solving for T+T, Initial residual = 1.1033e-08, Final residual = 3.37569e-10, No Iterations 1
ExecutionTime = 2.71 s



Wall heat fluxes [W]
movingWall -0.124795 1.46367e-15 -0.21375 -0.338545
left 0.2036 -4.85604e-16 0.34206 0.54566
right -0.0333822 1.61423e-16 -0.173733 -0.207115
bottom -0.0454229 0 0.0454229 1.1797e-09
movingWall2 -0.000668072 -4.36494e-18 0.000668097 2.5287e-08
left2 0.0433908 1.82206e-16 0.163724 0.207115
right2 -0.0561771 1.6587e-16 -0.150944 -0.207121
bottom2 0.0134479 0 -0.0134479 2.27561e-08
frontAndBack 0 0 0 0
sum -6.58032e-06 1.4832e-15 1.30645e-12 -6.58032e-06


Wall heat fluxes [W]
topAndBottom 0 0 0 0
left 0 0 0 0
right -5.77529e-12 0 0 -5.77529e-12
frontAndBack 0 0 0 0
sum -5.77529e-12 0 0 -5.77529e-12

Time = 990

DILUPBiCG:  Solving for Ux, Initial residual = 1.24048e-08, Final residual = 1.00346e-10, No Iterations 1
DILUPBiCG:  Solving for Uy, Initial residual = 9.39142e-09, Final residual = 5.10888e-11, No Iterations 1
DICPCG:  Solving for p_rgh, Initial residual = 3.20682e-08, Final residual = 1.79735e-10, No Iterations 6
time step continuity errors : sum local = 3.17162e-10, global = -2.73797e-17, cumulative = -1.73355e-15
DILUPBiCG:  Solving for epsilon, Initial residual = 7.23013e-09, Final residual = 2.28865e-11, No Iterations 2
DILUPBiCG:  Solving for k, Initial residual = 1.18967e-08, Final residual = 2.85452e-12, No Iterations 3
DICPCG:  Solving for G, Initial residual = 1.75317e-08, Final residual = 1.24743e-09, No Iterations 12
BiCG:  Solving for T+T, Initial residual = 1.08992e-08, Final residual = 3.33476e-10, No Iterations 1
ExecutionTime = 2.72 s



Wall heat fluxes [W]
movingWall -0.124795 -3.25261e-16 -0.21375 -0.338545
left 0.2036 8.32464e-16 0.34206 0.54566
right -0.0333822 3.22197e-16 -0.173733 -0.207115
bottom -0.0454229 0 0.0454229 1.16674e-09
movingWall2 -0.000668055 1.44745e-18 0.00066808 2.49797e-08
left2 0.0433908 -1.82207e-16 0.163724 0.207115
right2 -0.056177 5.92394e-17 -0.150944 -0.207121
bottom2 0.013448 0 -0.0134479 2.24795e-08
frontAndBack 0 0 0 0
sum -6.50033e-06 7.0788e-16 1.16142e-12 -6.50033e-06


Wall heat fluxes [W]
topAndBottom 0 0 0 0
left 0 0 0 0
right -5.57066e-12 0 0 -5.57066e-12
frontAndBack 0 0 0 0
sum -5.57066e-12 0 0 -5.57066e-12

Time = 991

DILUPBiCG:  Solving for Ux, Initial residual = 1.22559e-08, Final residual = 9.92648e-11, No Iterations 1
DILUPBiCG:  Solving for Uy, Initial residual = 9.28113e-09, Final residual = 5.06257e-11, No Iterations 1
DICPCG:  Solving for p_rgh, Initial residual = 3.1727e-08, Final residual = 2.46023e-10, No Iterations 6
time step continuity errors : sum local = 4.57438e-10, global = -3.35091e-17, cumulative = -1.76706e-15
DILUPBiCG:  Solving for epsilon, Initial residual = 7.14348e-09, Final residual = 2.26137e-11, No Iterations 2
DILUPBiCG:  Solving for k, Initial residual = 1.17549e-08, Final residual = 2.82141e-12, No Iterations 3
DICPCG:  Solving for G, Initial residual = 1.73186e-08, Final residual = 1.2323e-09, No Iterations 12
BiCG:  Solving for T+T, Initial residual = 1.07671e-08, Final residual = 3.29434e-10, No Iterations 1
ExecutionTime = 2.72 s



Wall heat fluxes [W]
movingWall -0.124795 8.13152e-16 -0.21375 -0.338545
left 0.2036 -1.66493e-15 0.34206 0.54566
right -0.0333822 1.60199e-16 -0.173733 -0.207115
bottom -0.0454229 0 0.0454229 1.15498e-09
movingWall2 -0.000668038 -2.18236e-18 0.000668062 2.46761e-08
left2 0.0433908 -4.55717e-16 0.163724 0.207115
right2 -0.056177 -1.89566e-16 -0.150944 -0.207121
bottom2 0.013448 0 -0.0134479 2.22063e-08
frontAndBack 0 0 0 0
sum -6.4213e-06 -1.33904e-15 1.05107e-12 -6.4213e-06


Wall heat fluxes [W]
topAndBottom 0 0 0 0
left 0 0 0 0
right -5.37739e-12 0 0 -5.37739e-12
frontAndBack 0 0 0 0
sum -5.37739e-12 0 0 -5.37739e-12

Time = 992

DILUPBiCG:  Solving for Ux, Initial residual = 1.21079e-08, Final residual = 9.81202e-11, No Iterations 1
DILUPBiCG:  Solving for Uy, Initial residual = 9.16938e-09, Final residual = 5.0056e-11, No Iterations 1
DICPCG:  Solving for p_rgh, Initial residual = 3.13767e-08, Final residual = 2.59845e-10, No Iterations 11
time step continuity errors : sum local = 3.3433e-10, global = 7.68451e-18, cumulative = -1.75938e-15
DILUPBiCG:  Solving for epsilon, Initial residual = 7.05475e-09, Final residual = 2.23604e-11, No Iterations 2
DILUPBiCG:  Solving for k, Initial residual = 1.16011e-08, Final residual = 2.78261e-12, No Iterations 3
DICPCG:  Solving for G, Initial residual = 1.7109e-08, Final residual = 1.21733e-09, No Iterations 12
BiCG:  Solving for T+T, Initial residual = 1.06353e-08, Final residual = 3.25398e-10, No Iterations 1
ExecutionTime = 2.72 s



Wall heat fluxes [W]
movingWall -0.124795 1.6263e-16 -0.21375 -0.338545
left 0.2036 -1.17932e-15 0.34206 0.54566
right -0.0333822 8.13822e-17 -0.173733 -0.207115
bottom -0.0454229 0 0.0454229 1.1379e-09
movingWall2 -0.000668021 -4.57483e-17 0.000668046 2.43762e-08
left2 0.0433908 7.60084e-20 0.163724 0.207115
right2 -0.0561769 -8.29351e-17 -0.150944 -0.207121
bottom2 0.013448 0 -0.013448 2.19364e-08
frontAndBack 0 0 0 0
sum -6.34327e-06 -1.06392e-15 3.96013e-13 -6.34327e-06


Wall heat fluxes [W]
topAndBottom 0 0 0 0
left 0 0 0 0
right -5.30918e-12 0 0 -5.30918e-12
frontAndBack 0 0 0 0
sum -5.30918e-12 0 0 -5.30918e-12

Time = 993

DILUPBiCG:  Solving for Ux, Initial residual = 1.19735e-08, Final residual = 9.68127e-11, No Iterations 1
DILUPBiCG:  Solving for Uy, Initial residual = 9.04799e-09, Final residual = 4.91732e-11, No Iterations 1
DICPCG:  Solving for p_rgh, Initial residual = 3.08353e-08, Final residual = 1.25593e-10, No Iterations 6
time step continuity errors : sum local = 1.94845e-10, global = 2.75617e-17, cumulative = -1.73182e-15
DILUPBiCG:  Solving for epsilon, Initial residual = 6.96816e-09, Final residual = 2.20706e-11, No Iterations 2
DILUPBiCG:  Solving for k, Initial residual = 1.14644e-08, Final residual = 2.75031e-12, No Iterations 3
DICPCG:  Solving for G, Initial residual = 1.69005e-08, Final residual = 1.20255e-09, No Iterations 12
BiCG:  Solving for T+T, Initial residual = 1.05062e-08, Final residual = 3.21451e-10, No Iterations 1
ExecutionTime = 2.72 s



Wall heat fluxes [W]
movingWall -0.124795 8.13152e-16 -0.21375 -0.338545
left 0.2036 3.53797e-15 0.34206 0.54566
right -0.0333822 6.4483e-16 -0.173733 -0.207115
bottom -0.0454229 0 0.0454229 1.12256e-09
movingWall2 -0.000668005 -6.68394e-17 0.000668029 2.40801e-08
left2 0.0433909 -4.10368e-16 0.163724 0.207115
right2 -0.0561769 9.4783e-17 -0.150944 -0.207121
bottom2 0.013448 0 -0.013448 2.167e-08
frontAndBack 0 0 0 0
sum -6.26618e-06 4.61353e-15 1.21728e-12 -6.26618e-06


Wall heat fluxes [W]
topAndBottom 0 0 0 0
left 0 0 0 0
right -5.15001e-12 0 0 -5.15001e-12
frontAndBack 0 0 0 0
sum -5.15001e-12 0 0 -5.15001e-12

Time = 994

DILUPBiCG:  Solving for Ux, Initial residual = 1.1815e-08, Final residual = 9.54389e-11, No Iterations 1
DILUPBiCG:  Solving for Uy, Initial residual = 8.93838e-09, Final residual = 4.85017e-11, No Iterations 1
DICPCG:  Solving for p_rgh, Initial residual = 3.04879e-08, Final residual = 1.33021e-10, No Iterations 6
time step continuity errors : sum local = 2.1295e-10, global = -1.37312e-18, cumulative = -1.73319e-15
DILUPBiCG:  Solving for epsilon, Initial residual = 6.88409e-09, Final residual = 2.17936e-11, No Iterations 2
DILUPBiCG:  Solving for k, Initial residual = 1.13264e-08, Final residual = 2.71697e-12, No Iterations 3
DICPCG:  Solving for G, Initial residual = 1.66943e-08, Final residual = 1.18794e-09, No Iterations 12
BiCG:  Solving for T+T, Initial residual = 1.03786e-08, Final residual = 3.17547e-10, No Iterations 1
ExecutionTime = 2.73 s



Wall heat fluxes [W]
movingWall -0.124795 0 -0.21375 -0.338545
left 0.2036 -1.66493e-15 0.34206 0.54566
right -0.0333822 1.60615e-16 -0.173733 -0.207115
bottom -0.0454229 0 0.0454229 1.10973e-09
movingWall2 -0.000667989 7.27469e-18 0.000668012 2.37872e-08
left2 0.0433909 -4.32744e-16 0.163724 0.207115
right2 -0.0561769 1.18479e-16 -0.150944 -0.207121
bottom2 0.013448 0 -0.013448 2.14064e-08
frontAndBack 0 0 0 0
sum -6.19002e-06 -1.8113e-15 1.27062e-12 -6.19002e-06


Wall heat fluxes [W]
topAndBottom 0 0 0 0
left 0 0 0 0
right -5.01359e-12 0 0 -5.01359e-12
frontAndBack 0 0 0 0
sum -5.01359e-12 0 0 -5.01359e-12

Time = 995

DILUPBiCG:  Solving for Ux, Initial residual = 1.1669e-08, Final residual = 9.43944e-11, No Iterations 1
DILUPBiCG:  Solving for Uy, Initial residual = 8.83439e-09, Final residual = 4.80586e-11, No Iterations 1
DICPCG:  Solving for p_rgh, Initial residual = 3.01662e-08, Final residual = 1.69075e-10, No Iterations 6
time step continuity errors : sum local = 2.98351e-10, global = -6.98389e-17, cumulative = -1.80303e-15
DILUPBiCG:  Solving for epsilon, Initial residual = 6.80129e-09, Final residual = 2.1529e-11, No Iterations 2
DILUPBiCG:  Solving for k, Initial residual = 1.11911e-08, Final residual = 2.68521e-12, No Iterations 3
DICPCG:  Solving for G, Initial residual = 1.64917e-08, Final residual = 1.17345e-09, No Iterations 12
BiCG:  Solving for T+T, Initial residual = 1.02527e-08, Final residual = 3.13696e-10, No Iterations 1
ExecutionTime = 2.73 s



Wall heat fluxes [W]
movingWall -0.124795 -2.11419e-15 -0.21375 -0.338545
left 0.2036 1.10995e-15 0.34206 0.54566
right -0.0333822 1.61402e-16 -0.173733 -0.207115
bottom -0.0454229 0 0.0454229 1.09752e-09
movingWall2 -0.000667973 5.01181e-17 0.000667996 2.3498e-08
left2 0.0433909 5.01188e-16 0.163724 0.207115
right2 -0.0561768 2.36957e-17 -0.150944 -0.207121
bottom2 0.013448 0 -0.013448 2.11461e-08
frontAndBack 0 0 0 0
sum -6.11477e-06 -2.67838e-16 4.03802e-13 -6.11477e-06


Wall heat fluxes [W]
topAndBottom 0 0 0 0
left 0 0 0 0
right -4.83169e-12 0 0 -4.83169e-12
frontAndBack 0 0 0 0
sum -4.83169e-12 0 0 -4.83169e-12

Time = 996

DILUPBiCG:  Solving for Ux, Initial residual = 1.1529e-08, Final residual = 9.33772e-11, No Iterations 1
DILUPBiCG:  Solving for Uy, Initial residual = 8.73066e-09, Final residual = 4.76231e-11, No Iterations 1
DICPCG:  Solving for p_rgh, Initial residual = 2.98451e-08, Final residual = 2.31431e-10, No Iterations 6
time step continuity errors : sum local = 4.30308e-10, global = -7.58525e-18, cumulative = -1.81061e-15
DILUPBiCG:  Solving for epsilon, Initial residual = 6.71978e-09, Final residual = 2.12724e-11, No Iterations 2
DILUPBiCG:  Solving for k, Initial residual = 1.10577e-08, Final residual = 2.65406e-12, No Iterations 3
DICPCG:  Solving for G, Initial residual = 1.62915e-08, Final residual = 1.1592e-09, No Iterations 12
BiCG:  Solving for T+T, Initial residual = 1.01284e-08, Final residual = 3.09893e-10, No Iterations 1
ExecutionTime = 2.73 s



Wall heat fluxes [W]
movingWall -0.124795 4.87891e-16 -0.21375 -0.338545
left 0.2036 -4.16232e-16 0.34206 0.54566
right -0.0333822 -1.61418e-16 -0.173733 -0.207115
bottom -0.0454229 0 0.0454229 1.08648e-09
movingWall2 -0.000667957 5.44827e-17 0.00066798 2.32126e-08
left2 0.0433909 2.2724e-17 0.163724 0.207115
right2 -0.0561768 -8.29351e-17 -0.150944 -0.207121
bottom2 0.013448 0 -0.013448 2.08892e-08
frontAndBack 0 0 0 0
sum -6.04044e-06 -9.54869e-17 7.70987e-13 -6.04044e-06


Wall heat fluxes [W]
topAndBottom 0 0 0 0
left 0 0 0 0
right -4.74074e-12 0 0 -4.74074e-12
frontAndBack 0 0 0 0
sum -4.74074e-12 0 0 -4.74074e-12

Time = 997

DILUPBiCG:  Solving for Ux, Initial residual = 1.13898e-08, Final residual = 9.23006e-11, No Iterations 1
DILUPBiCG:  Solving for Uy, Initial residual = 8.62552e-09, Final residual = 4.70869e-11, No Iterations 1
DICPCG:  Solving for p_rgh, Initial residual = 2.95157e-08, Final residual = 2.44432e-10, No Iterations 11
time step continuity errors : sum local = 3.145e-10, global = 1.11256e-17, cumulative = -1.79949e-15
DILUPBiCG:  Solving for epsilon, Initial residual = 6.63631e-09, Final residual = 2.10341e-11, No Iterations 2
DILUPBiCG:  Solving for k, Initial residual = 1.09131e-08, Final residual = 2.61757e-12, No Iterations 3
DICPCG:  Solving for G, Initial residual = 1.6094e-08, Final residual = 1.14513e-09, No Iterations 12
BiCG:  Solving for T+T, Initial residual = 1.00045e-08, Final residual = 3.06097e-10, No Iterations 1
ExecutionTime = 2.73 s



Wall heat fluxes [W]
movingWall -0.124795 -6.50521e-16 -0.21375 -0.338545
left 0.2036 -2.08116e-16 0.34206 0.54566
right -0.0333822 3.22148e-16 -0.173733 -0.207115
bottom -0.0454229 0 0.0454229 1.07042e-09
movingWall2 -0.000667941 7.24519e-19 0.000667964 2.29304e-08
left2 0.0433909 -3.18973e-16 0.163724 0.207115
right2 -0.0561768 2.36957e-17 -0.150944 -0.207121
bottom2 0.013448 0 -0.013448 2.06354e-08
frontAndBack 0 0 0 0
sum -5.96703e-06 -8.31042e-16 8.19827e-13 -5.96703e-06


Wall heat fluxes [W]
topAndBottom 0 0 0 0
left 0 0 0 0
right -4.60432e-12 0 0 -4.60432e-12
frontAndBack 0 0 0 0
sum -4.60432e-12 0 0 -4.60432e-12

Time = 998

DILUPBiCG:  Solving for Ux, Initial residual = 1.12633e-08, Final residual = 9.10707e-11, No Iterations 1
DILUPBiCG:  Solving for Uy, Initial residual = 8.51132e-09, Final residual = 4.62565e-11, No Iterations 1
DICPCG:  Solving for p_rgh, Initial residual = 2.90063e-08, Final residual = 1.18144e-10, No Iterations 6
time step continuity errors : sum local = 1.83288e-10, global = -6.22371e-17, cumulative = -1.86173e-15
DILUPBiCG:  Solving for epsilon, Initial residual = 6.55485e-09, Final residual = 2.07615e-11, No Iterations 2
DILUPBiCG:  Solving for k, Initial residual = 1.07844e-08, Final residual = 2.58718e-12, No Iterations 3
DICPCG:  Solving for G, Initial residual = 1.58981e-08, Final residual = 1.13123e-09, No Iterations 12
BiCG:  Solving for T+T, Initial residual = 9.88308e-09, Final residual = 3.02384e-10, No Iterations 1
ExecutionTime = 2.74 s



Wall heat fluxes [W]
movingWall -0.124795 -1.6263e-15 -0.21375 -0.338545
left 0.2036 -1.10995e-15 0.34206 0.54566
right -0.0333822 -3.22187e-16 -0.173733 -0.207115
bottom -0.0454229 0 0.0454229 1.05597e-09
movingWall2 -0.000667926 8.73767e-18 0.000667948 2.26518e-08
left2 0.0433909 -4.54727e-17 0.163724 0.207115
right2 -0.0561767 -3.55436e-17 -0.150944 -0.207121
bottom2 0.013448 0 -0.013448 2.03846e-08
frontAndBack 0 0 0 0
sum -5.89451e-06 -3.13072e-15 1.14514e-12 -5.89451e-06


Wall heat fluxes [W]
topAndBottom 0 0 0 0
left 0 0 0 0
right -4.49063e-12 0 0 -4.49063e-12
frontAndBack 0 0 0 0
sum -4.49063e-12 0 0 -4.49063e-12

Time = 999

DILUPBiCG:  Solving for Ux, Initial residual = 1.11142e-08, Final residual = 8.97782e-11, No Iterations 1
DILUPBiCG:  Solving for Uy, Initial residual = 8.40823e-09, Final residual = 4.5625e-11, No Iterations 1
DICPCG:  Solving for p_rgh, Initial residual = 2.86796e-08, Final residual = 1.2513e-10, No Iterations 6
time step continuity errors : sum local = 2.00318e-10, global = 6.48675e-17, cumulative = -1.79686e-15
DILUPBiCG:  Solving for epsilon, Initial residual = 6.47578e-09, Final residual = 2.05009e-11, No Iterations 2
DILUPBiCG:  Solving for k, Initial residual = 1.06546e-08, Final residual = 2.55582e-12, No Iterations 3
DICPCG:  Solving for G, Initial residual = 1.57042e-08, Final residual = 1.1175e-09, No Iterations 12
BiCG:  Solving for T+T, Initial residual = 9.76302e-09, Final residual = 2.98711e-10, No Iterations 1
ExecutionTime = 2.74 s



Wall heat fluxes [W]
movingWall -0.124795 1.6263e-15 -0.21375 -0.338545
left 0.2036 3.53797e-15 0.34206 0.54566
right -0.0333822 -8.00454e-17 -0.173733 -0.207115
bottom -0.0454229 0 0.0454229 1.04392e-09
movingWall2 -0.00066791 -2.17743e-17 0.000667933 2.23764e-08
left2 0.0433909 9.1199e-17 0.163724 0.207115
right2 -0.0561767 -2.36957e-17 -0.150944 -0.207121
bottom2 0.0134481 0 -0.013448 2.01367e-08
frontAndBack 0 0 0 0
sum -5.82287e-06 5.12996e-15 1.65535e-12 -5.82287e-06


Wall heat fluxes [W]
topAndBottom 0 0 0 0
left 0 0 0 0
right -4.37694e-12 0 0 -4.37694e-12
frontAndBack 0 0 0 0
sum -4.37694e-12 0 0 -4.37694e-12

Time = 1000

DILUPBiCG:  Solving for Ux, Initial residual = 1.09769e-08, Final residual = 8.87958e-11, No Iterations 1
DILUPBiCG:  Solving for Uy, Initial residual = 8.31039e-09, Final residual = 4.5208e-11, No Iterations 1
DICPCG:  Solving for p_rgh, Initial residual = 2.83769e-08, Final residual = 1.59046e-10, No Iterations 6
time step continuity errors : sum local = 2.80654e-10, global = 7.41319e-17, cumulative = -1.72273e-15
DILUPBiCG:  Solving for epsilon, Initial residual = 6.39788e-09, Final residual = 2.0252e-11, No Iterations 2
DILUPBiCG:  Solving for k, Initial residual = 1.05274e-08, Final residual = 2.52594e-12, No Iterations 3
DICPCG:  Solving for G, Initial residual = 1.55134e-08, Final residual = 1.10384e-09, No Iterations 12
BiCG:  Solving for T+T, Initial residual = 9.6446e-09, Final residual = 2.95089e-10, No Iterations 1
ExecutionTime = 2.75 s



Wall heat fluxes [W]
movingWall -0.124795 2.11419e-15 -0.21375 -0.338545
left 0.2036 4.16232e-15 0.34206 0.54566
right -0.0333822 1.61251e-16 -0.173733 -0.207115
bottom -0.0454229 0 0.0454229 1.03238e-09
movingWall2 -0.000667895 -9.15284e-17 0.000667917 2.21043e-08
left2 0.0433909 -3.19255e-16 0.163724 0.207115
right2 -0.0561767 9.4783e-17 -0.150944 -0.207121
bottom2 0.0134481 0 -0.013448 1.98919e-08
frontAndBack 0 0 0 0
sum -5.75209e-06 6.12176e-15 4.37671e-13 -5.75209e-06


Wall heat fluxes [W]
topAndBottom 0 0 0 0
left 0 0 0 0
right -4.29736e-12 0 0 -4.29736e-12
frontAndBack 0 0 0 0
sum -4.29736e-12 0 0 -4.29736e-12

End

