/*---------------------------------------------------------------------------*\
| =========                 |                                                 |
| \\      /  F ield         | OpenFOAM Extend Project: Open source CFD        |
|  \\    /   O peration     | Version:  1.6-ext                               |
|   \\  /    A nd           | Web:      www.extend-project.de                 |
|    \\/     M anipulation  |                                                 |
\*---------------------------------------------------------------------------*/
Build  : 1.6-ext-62b0c9cdf665
Exec   : chipAirCoolingSimpleFoam
Date   : Oct 21 2011
Time   : 15:48:30
Host   : galerius
PID    : 3734
Case   : /home/henrus/projects/ChipAirCooling/run/tutorial1_noRadiation/conjugateContactCavity
nProcs : 1
SigFpe : Enabling floating point exception trapping (FOAM_SIGFPE).

// * * * * * * * * * * * * * * * * * * * * * * * * * * * * * * * * * * * * * //
Create time

Create mesh for time = 0


    From function void polyMesh::initMesh()
    in file meshes/polyMesh/polyMeshInitMesh.C at line 82
    Truncating neighbour list at 180 for backward compatibility

Reading g
Reading transportProperties

Calculating field g.h

Reading field p_rgh

Reading field U

Reading field T

Reading/calculating face flux field phi

Selecting incompressible transport model Newtonian
Selecting RAS turbulence model kEpsilon
kEpsilonCoeffs
{
    Cmu             0.09;
    C1              1.44;
    C2              1.92;
    alphaEps        0.76923;
    sigmaEps        1.3;
}

Reading field kappaEff

Creating radiation model

Selecting radiationModel none
Reading field Tsolid

Reading solid thermal properties
Selecting thermal model multiMaterialZones
Selecting thermal model constant
Selecting thermal model constant
Selecting thermal gap model constant
Reading solid diffusivity k


Starting time loop

--> FOAM Warning : 
    From function dlLibraryTable::open(const dictionary& dict, const word& libsEntry, const TablePtr tablePtr)
    in file lnInclude/dlLibraryTableTemplates.C at line 68
    library "libairbusMaterialModels.so" did not introduce any new entries

Time = 1

DILUPBiCG:  Solving for Ux, Initial residual = 1, Final residual = 9.86721e-05, No Iterations 2
DILUPBiCG:  Solving for Uy, Initial residual = 1, Final residual = 0.000204448, No Iterations 2
DICPCG:  Solving for p_rgh, Initial residual = 1, Final residual = 0.00982502, No Iterations 6
time step continuity errors : sum local = 0.00311453, global = -1.32349e-19, cumulative = -1.32349e-19
DILUPBiCG:  Solving for epsilon, Initial residual = 0.0778347, Final residual = 0.000142816, No Iterations 2
DILUPBiCG:  Solving for k, Initial residual = 1, Final residual = 0.00248998, No Iterations 2
Before T+T solve
BiCG:  Solving for T+T, Initial residual = 0.312146, Final residual = 0.0277529, No Iterations 3
Tres = -1.471
TsRes = -17.0594
ExecutionTime = 0.02 s



Wall heat fluxes [W]
movingWall 0 0 0 0
left 6.69128e-08 0 0 6.69128e-08
right -1.471 0 0 -1.471
bottom 0 0 0 0
frontAndBack 0 0 0 0
sum -1.471 0 0 -1.471


Wall heat fluxes [W]
topAndBottom 0 0 0 0
left 1.47501 0 0 1.47501
right -18.5344 0 0 -18.5344
frontAndBack 0 0 0 0
sum -17.0594 0 0 -17.0594

Time = 2

DILUPBiCG:  Solving for Ux, Initial residual = 0.915074, Final residual = 0.00775451, No Iterations 1
DILUPBiCG:  Solving for Uy, Initial residual = 0.567641, Final residual = 0.00527682, No Iterations 1
DICPCG:  Solving for p_rgh, Initial residual = 0.947117, Final residual = 0.00724189, No Iterations 5
time step continuity errors : sum local = 0.0210215, global = -8.20563e-18, cumulative = -8.33798e-18
DILUPBiCG:  Solving for epsilon, Initial residual = 0.020316, Final residual = 2.59603e-05, No Iterations 2
DILUPBiCG:  Solving for k, Initial residual = 0.663077, Final residual = 0.00076953, No Iterations 2
Before T+T solve
BiCG:  Solving for T+T, Initial residual = 0.0321563, Final residual = 0.00110389, No Iterations 5
Tres = -1.0087
TsRes = -6.40327
ExecutionTime = 0.02 s



Wall heat fluxes [W]
movingWall 0 0 0 0
left 1.91078e-07 2.31554e-22 0 1.91078e-07
right -1.0087 -3.73558e-16 0 -1.0087
bottom 0 0 0 0
frontAndBack 0 0 0 0
sum -1.0087 -3.73558e-16 0 -1.0087


Wall heat fluxes [W]
topAndBottom 0 0 0 0
left 0.915854 0 0 0.915854
right -7.31912 0 0 -7.31912
frontAndBack 0 0 0 0
sum -6.40327 0 0 -6.40327

Time = 3

DILUPBiCG:  Solving for Ux, Initial residual = 0.39498, Final residual = 0.00341944, No Iterations 1
DILUPBiCG:  Solving for Uy, Initial residual = 0.38253, Final residual = 0.00318623, No Iterations 1
DICPCG:  Solving for p_rgh, Initial residual = 0.30439, Final residual = 0.00205203, No Iterations 6
time step continuity errors : sum local = 0.0113329, global = 2.66683e-16, cumulative = 2.58345e-16
DILUPBiCG:  Solving for epsilon, Initial residual = 0.0805938, Final residual = 4.90856e-05, No Iterations 2
DILUPBiCG:  Solving for k, Initial residual = 0.215467, Final residual = 0.000238193, No Iterations 2
Before T+T solve
BiCG:  Solving for T+T, Initial residual = 0.00870103, Final residual = 0.000599164, No Iterations 5
Tres = -1.02451
TsRes = -3.30891
ExecutionTime = 0.02 s



Wall heat fluxes [W]
movingWall 0 0 0 0
left 1.35591e-06 -1.32317e-22 0 1.35591e-06
right -1.02451 1.26297e-14 0 -1.02451
bottom 0 0 0 0
frontAndBack 0 0 0 0
sum -1.02451 1.26297e-14 0 -1.02451


Wall heat fluxes [W]
topAndBottom 0 0 0 0
left 1.50401 0 0 1.50401
right -4.81292 0 0 -4.81292
frontAndBack 0 0 0 0
sum -3.30891 0 0 -3.30891

Time = 4

DILUPBiCG:  Solving for Ux, Initial residual = 0.290967, Final residual = 0.00274837, No Iterations 1
DILUPBiCG:  Solving for Uy, Initial residual = 0.287468, Final residual = 0.00244814, No Iterations 1
DICPCG:  Solving for p_rgh, Initial residual = 0.162619, Final residual = 0.00160028, No Iterations 10
time step continuity errors : sum local = 0.00664306, global = 4.32384e-16, cumulative = 6.90729e-16
DILUPBiCG:  Solving for epsilon, Initial residual = 0.11992, Final residual = 0.000104328, No Iterations 2
DILUPBiCG:  Solving for k, Initial residual = 0.12232, Final residual = 0.000134246, No Iterations 2
Before T+T solve
BiCG:  Solving for T+T, Initial residual = 0.00564304, Final residual = 0.000159493, No Iterations 5
Tres = -1.13113
TsRes = -2.26295
ExecutionTime = 0.03 s



Wall heat fluxes [W]
movingWall 0 0 0 0
left 5.03549e-06 0 0 5.03549e-06
right -1.13113 2.08464e-14 0 -1.13113
bottom 0 0 0 0
frontAndBack 0 0 0 0
sum -1.13113 2.08464e-14 0 -1.13113


Wall heat fluxes [W]
topAndBottom 0 0 0 0
left 1.50643 0 0 1.50643
right -3.76938 0 0 -3.76938
frontAndBack 0 0 0 0
sum -2.26295 0 0 -2.26295

Time = 5

DILUPBiCG:  Solving for Ux, Initial residual = 0.168947, Final residual = 0.00147767, No Iterations 1
DILUPBiCG:  Solving for Uy, Initial residual = 0.19532, Final residual = 0.0014641, No Iterations 1
DICPCG:  Solving for p_rgh, Initial residual = 0.132671, Final residual = 0.00112053, No Iterations 10
time step continuity errors : sum local = 0.00422164, global = -2.91829e-16, cumulative = 3.989e-16
DILUPBiCG:  Solving for epsilon, Initial residual = 0.133976, Final residual = 0.000121192, No Iterations 2
DILUPBiCG:  Solving for k, Initial residual = 0.0897837, Final residual = 0.00022113, No Iterations 2
Before T+T solve
BiCG:  Solving for T+T, Initial residual = 0.0044031, Final residual = 0.00043992, No Iterations 3
Tres = -1.21958
TsRes = -1.58377
ExecutionTime = 0.03 s



Wall heat fluxes [W]
movingWall 0 0 0 0
left 1.87715e-05 -6.3512e-21 0 1.87715e-05
right -1.2196 -1.42767e-14 0 -1.2196
bottom 0 0 0 0
frontAndBack 0 0 0 0
sum -1.21958 -1.42767e-14 0 -1.21958


Wall heat fluxes [W]
topAndBottom 0 0 0 0
left 1.54974 0 0 1.54974
right -3.13352 0 0 -3.13352
frontAndBack 0 0 0 0
sum -1.58377 0 0 -1.58377

Time = 6

DILUPBiCG:  Solving for Ux, Initial residual = 0.113994, Final residual = 0.00100973, No Iterations 1
DILUPBiCG:  Solving for Uy, Initial residual = 0.126407, Final residual = 0.000932824, No Iterations 1
DICPCG:  Solving for p_rgh, Initial residual = 0.105402, Final residual = 0.000642897, No Iterations 10
time step continuity errors : sum local = 0.00229929, global = 4.17892e-17, cumulative = 4.40689e-16
DILUPBiCG:  Solving for epsilon, Initial residual = 0.11912, Final residual = 0.000109724, No Iterations 2
DILUPBiCG:  Solving for k, Initial residual = 0.073992, Final residual = 9.18155e-05, No Iterations 2
Before T+T solve
BiCG:  Solving for T+T, Initial residual = 0.00371287, Final residual = 0.000208865, No Iterations 3
Tres = -1.28467
TsRes = -1.21561
ExecutionTime = 0.03 s



Wall heat fluxes [W]
movingWall 0 0 0 0
left 4.91324e-05 0 0 4.91324e-05
right -1.28472 1.294e-15 0 -1.28472
bottom 0 0 0 0
frontAndBack 0 0 0 0
sum -1.28467 1.294e-15 0 -1.28467


Wall heat fluxes [W]
topAndBottom 0 0 0 0
left 1.54382 0 0 1.54382
right -2.75943 0 0 -2.75943
frontAndBack 0 0 0 0
sum -1.21561 0 0 -1.21561

Time = 7

DILUPBiCG:  Solving for Ux, Initial residual = 0.0878012, Final residual = 0.000798859, No Iterations 1
DILUPBiCG:  Solving for Uy, Initial residual = 0.0911311, Final residual = 0.000669656, No Iterations 1
DICPCG:  Solving for p_rgh, Initial residual = 0.0835136, Final residual = 0.000503201, No Iterations 10
time step continuity errors : sum local = 0.00186284, global = -2.5808e-17, cumulative = 4.14881e-16
DILUPBiCG:  Solving for epsilon, Initial residual = 0.0941703, Final residual = 0.000121326, No Iterations 2
DILUPBiCG:  Solving for k, Initial residual = 0.0653049, Final residual = 0.000107506, No Iterations 2
Before T+T solve
BiCG:  Solving for T+T, Initial residual = 0.00334017, Final residual = 0.000262553, No Iterations 3
Tres = -1.32894
TsRes = -0.885432
ExecutionTime = 0.03 s



Wall heat fluxes [W]
movingWall 0 0 0 0
left 0.00010982 5.41969e-19 0 0.00010982
right -1.32905 -4.2791e-16 0 -1.32905
bottom 0 0 0 0
frontAndBack 0 0 0 0
sum -1.32894 -4.27368e-16 0 -1.32894


Wall heat fluxes [W]
topAndBottom 0 0 0 0
left 1.53657 0 0 1.53657
right -2.422 0 0 -2.422
frontAndBack 0 0 0 0
sum -0.885432 0 0 -0.885432

Time = 8

DILUPBiCG:  Solving for Ux, Initial residual = 0.0757258, Final residual = 0.000696493, No Iterations 1
DILUPBiCG:  Solving for Uy, Initial residual = 0.0751529, Final residual = 0.000540499, No Iterations 1
DICPCG:  Solving for p_rgh, Initial residual = 0.085242, Final residual = 0.000505319, No Iterations 10
time step continuity errors : sum local = 0.00201406, global = 8.09975e-17, cumulative = 4.95878e-16
DILUPBiCG:  Solving for epsilon, Initial residual = 0.0723503, Final residual = 0.000285028, No Iterations 2
DILUPBiCG:  Solving for k, Initial residual = 0.0611802, Final residual = 0.000114765, No Iterations 2
Before T+T solve
BiCG:  Solving for T+T, Initial residual = 0.00301406, Final residual = 0.000200503, No Iterations 3
Tres = -1.35542
TsRes = -0.690383
ExecutionTime = 0.03 s



Wall heat fluxes [W]
movingWall 0 0 0 0
left 0.000220137 1.52429e-19 0 0.000220137
right -1.35564 5.27204e-15 0 -1.35564
bottom 0 0 0 0
frontAndBack 0 0 0 0
sum -1.35542 5.27219e-15 0 -1.35542


Wall heat fluxes [W]
topAndBottom 0 0 0 0
left 1.51345 0 0 1.51345
right -2.20383 0 0 -2.20383
frontAndBack 0 0 0 0
sum -0.690383 0 0 -0.690383

Time = 9

DILUPBiCG:  Solving for Ux, Initial residual = 0.068538, Final residual = 0.000658249, No Iterations 1
DILUPBiCG:  Solving for Uy, Initial residual = 0.0685983, Final residual = 0.000507136, No Iterations 1
DICPCG:  Solving for p_rgh, Initial residual = 0.0913887, Final residual = 0.00088001, No Iterations 9
time step continuity errors : sum local = 0.00413823, global = 2.0117e-17, cumulative = 5.15995e-16
DILUPBiCG:  Solving for epsilon, Initial residual = 0.0571486, Final residual = 6.05125e-05, No Iterations 2
DILUPBiCG:  Solving for k, Initial residual = 0.0580601, Final residual = 0.000100213, No Iterations 2
Before T+T solve
BiCG:  Solving for T+T, Initial residual = 0.0028191, Final residual = 0.000230789, No Iterations 3
Tres = -1.36743
TsRes = -0.521252
ExecutionTime = 0.04 s



Wall heat fluxes [W]
movingWall 0 0 0 0
left 0.000410413 2.01545e-18 0 0.000410413
right -1.36785 1.32348e-15 0 -1.36785
bottom 0 0 0 0
frontAndBack 0 0 0 0
sum -1.36743 1.3255e-15 0 -1.36743


Wall heat fluxes [W]
topAndBottom 0 0 0 0
left 1.49399 0 0 1.49399
right -2.01524 0 0 -2.01524
frontAndBack 0 0 0 0
sum -0.521252 0 0 -0.521252

Time = 10

DILUPBiCG:  Solving for Ux, Initial residual = 0.0712158, Final residual = 0.000674455, No Iterations 1
DILUPBiCG:  Solving for Uy, Initial residual = 0.0660965, Final residual = 0.000550047, No Iterations 1
DICPCG:  Solving for p_rgh, Initial residual = 0.115888, Final residual = 0.000700016, No Iterations 9
time step continuity errors : sum local = 0.00388556, global = 5.19139e-16, cumulative = 1.03513e-15
DILUPBiCG:  Solving for epsilon, Initial residual = 0.0459593, Final residual = 4.49631e-05, No Iterations 2
DILUPBiCG:  Solving for k, Initial residual = 0.0549571, Final residual = 8.50131e-05, No Iterations 2
Before T+T solve
BiCG:  Solving for T+T, Initial residual = 0.00270761, Final residual = 0.00024069, No Iterations 3
Tres = -1.3779
TsRes = -0.409239
ExecutionTime = 0.04 s



Wall heat fluxes [W]
movingWall 0 0 0 0
left 0.00072759 6.77461e-19 0 0.00072759
right -1.37863 2.76444e-14 0 -1.37863
bottom 0 0 0 0
frontAndBack 0 0 0 0
sum -1.3779 2.76451e-14 0 -1.3779


Wall heat fluxes [W]
topAndBottom 0 0 0 0
left 1.47479 0 0 1.47479
right -1.88403 0 0 -1.88403
frontAndBack 0 0 0 0
sum -0.409239 0 0 -0.409239

Time = 11

DILUPBiCG:  Solving for Ux, Initial residual = 0.0738135, Final residual = 0.000640528, No Iterations 1
DILUPBiCG:  Solving for Uy, Initial residual = 0.0654586, Final residual = 0.000520555, No Iterations 1
DICPCG:  Solving for p_rgh, Initial residual = 0.127274, Final residual = 0.00118804, No Iterations 5
time step continuity errors : sum local = 0.0109528, global = -4.42839e-16, cumulative = 5.92294e-16
DILUPBiCG:  Solving for epsilon, Initial residual = 0.0385595, Final residual = 3.66737e-05, No Iterations 2
DILUPBiCG:  Solving for k, Initial residual = 0.0530945, Final residual = 7.96459e-05, No Iterations 2
Before T+T solve
BiCG:  Solving for T+T, Initial residual = 0.00268472, Final residual = 0.000177428, No Iterations 3
Tres = -1.4004
TsRes = -0.294271
ExecutionTime = 0.04 s



Wall heat fluxes [W]
movingWall 0 0 0 0
left 0.00122272 -1.69365e-19 0 0.00122272
right -1.40162 -2.10612e-14 0 -1.40162
bottom 0 0 0 0
frontAndBack 0 0 0 0
sum -1.4004 -2.10614e-14 0 -1.4004


Wall heat fluxes [W]
topAndBottom 0 0 0 0
left 1.47916 0 0 1.47916
right -1.77343 0 0 -1.77343
frontAndBack 0 0 0 0
sum -0.294271 0 0 -0.294271

Time = 12

DILUPBiCG:  Solving for Ux, Initial residual = 0.069656, Final residual = 0.000571943, No Iterations 1
DILUPBiCG:  Solving for Uy, Initial residual = 0.061403, Final residual = 0.000486993, No Iterations 1
DICPCG:  Solving for p_rgh, Initial residual = 0.118408, Final residual = 0.00106526, No Iterations 9
time step continuity errors : sum local = 0.00568731, global = -2.77933e-17, cumulative = 5.64501e-16
DILUPBiCG:  Solving for epsilon, Initial residual = 0.0341007, Final residual = 3.27543e-05, No Iterations 2
DILUPBiCG:  Solving for k, Initial residual = 0.0522861, Final residual = 8.11485e-05, No Iterations 2
Before T+T solve
BiCG:  Solving for T+T, Initial residual = 0.0025566, Final residual = 0.000122419, No Iterations 3
Tres = -1.40874
TsRes = -0.233325
ExecutionTime = 0.04 s



Wall heat fluxes [W]
movingWall 0 0 0 0
left 0.00192949 3.04857e-18 0 0.00192949
right -1.41067 -1.80072e-15 0 -1.41067
bottom 0 0 0 0
frontAndBack 0 0 0 0
sum -1.40874 -1.79767e-15 0 -1.40874


Wall heat fluxes [W]
topAndBottom 0 0 0 0
left 1.46673 0 0 1.46673
right -1.70005 0 0 -1.70005
frontAndBack 0 0 0 0
sum -0.233325 0 0 -0.233325

Time = 13

DILUPBiCG:  Solving for Ux, Initial residual = 0.0704682, Final residual = 0.000577517, No Iterations 1
DILUPBiCG:  Solving for Uy, Initial residual = 0.0543549, Final residual = 0.000447218, No Iterations 1
DICPCG:  Solving for p_rgh, Initial residual = 0.169243, Final residual = 0.00164706, No Iterations 6
time step continuity errors : sum local = 0.0119252, global = -2.50404e-16, cumulative = 3.14097e-16
DILUPBiCG:  Solving for epsilon, Initial residual = 0.0310386, Final residual = 2.92742e-05, No Iterations 2
DILUPBiCG:  Solving for k, Initial residual = 0.0510594, Final residual = 8.0615e-05, No Iterations 2
Before T+T solve
BiCG:  Solving for T+T, Initial residual = 0.00251766, Final residual = 0.000106643, No Iterations 3
Tres = -1.41384
TsRes = -0.172518
ExecutionTime = 0.04 s



Wall heat fluxes [W]
movingWall 0 0 0 0
left 0.00299795 -1.05684e-17 0 0.00299795
right -1.41684 -1.39598e-14 0 -1.41684
bottom 0 0 0 0
frontAndBack 0 0 0 0
sum -1.41384 -1.39704e-14 0 -1.41384


Wall heat fluxes [W]
topAndBottom 0 0 0 0
left 1.46352 0 0 1.46352
right -1.63604 0 0 -1.63604
frontAndBack 0 0 0 0
sum -0.172518 0 0 -0.172518

Time = 14

DILUPBiCG:  Solving for Ux, Initial residual = 0.0634212, Final residual = 0.000533963, No Iterations 1
DILUPBiCG:  Solving for Uy, Initial residual = 0.0511348, Final residual = 0.000424677, No Iterations 1
DICPCG:  Solving for p_rgh, Initial residual = 0.201343, Final residual = 0.0017209, No Iterations 9
time step continuity errors : sum local = 0.00817688, global = 1.0032e-16, cumulative = 4.14417e-16
DILUPBiCG:  Solving for epsilon, Initial residual = 0.0288285, Final residual = 3.37342e-06, No Iterations 3
DILUPBiCG:  Solving for k, Initial residual = 0.0507905, Final residual = 8.14657e-05, No Iterations 2
Before T+T solve
BiCG:  Solving for T+T, Initial residual = 0.00249508, Final residual = 9.02218e-05, No Iterations 3
Tres = -1.41762
TsRes = -0.137151
ExecutionTime = 0.05 s



Wall heat fluxes [W]
movingWall 0 0 0 0
left 0.00447574 2.81824e-17 0 0.00447574
right -1.42209 4.96633e-15 0 -1.42209
bottom 0 0 0 0
frontAndBack 0 0 0 0
sum -1.41762 4.99451e-15 0 -1.41762


Wall heat fluxes [W]
topAndBottom 0 0 0 0
left 1.45578 0 0 1.45578
right -1.59293 0 0 -1.59293
frontAndBack 0 0 0 0
sum -0.137151 0 0 -0.137151

Time = 15

DILUPBiCG:  Solving for Ux, Initial residual = 0.0589554, Final residual = 0.000510592, No Iterations 1
DILUPBiCG:  Solving for Uy, Initial residual = 0.0435034, Final residual = 0.000320605, No Iterations 1
DICPCG:  Solving for p_rgh, Initial residual = 0.141636, Final residual = 0.00122101, No Iterations 9
time step continuity errors : sum local = 0.00573846, global = -2.64698e-19, cumulative = 4.14153e-16
DILUPBiCG:  Solving for epsilon, Initial residual = 0.027347, Final residual = 2.89545e-05, No Iterations 2
DILUPBiCG:  Solving for k, Initial residual = 0.0501554, Final residual = 8.05138e-05, No Iterations 2
Before T+T solve
BiCG:  Solving for T+T, Initial residual = 0.00249826, Final residual = 0.000238135, No Iterations 2
Tres = -1.4138
TsRes = -0.133732
ExecutionTime = 0.05 s



Wall heat fluxes [W]
movingWall 0 0 0 0
left 0.00673686 3.3873e-17 0 0.00673686
right -1.42054 -1.80146e-15 0 -1.42054
bottom 0 0 0 0
frontAndBack 0 0 0 0
sum -1.4138 -1.76759e-15 0 -1.4138


Wall heat fluxes [W]
topAndBottom 0 0 0 0
left 1.44846 0 0 1.44846
right -1.5822 0 0 -1.5822
frontAndBack 0 0 0 0
sum -0.133732 0 0 -0.133732

Time = 16

DILUPBiCG:  Solving for Ux, Initial residual = 0.0540912, Final residual = 0.000482738, No Iterations 1
DILUPBiCG:  Solving for Uy, Initial residual = 0.0389409, Final residual = 0.000306704, No Iterations 1
DICPCG:  Solving for p_rgh, Initial residual = 0.130652, Final residual = 0.00129187, No Iterations 6
time step continuity errors : sum local = 0.00842311, global = 1.15144e-16, cumulative = 5.29296e-16
DILUPBiCG:  Solving for epsilon, Initial residual = 0.0266258, Final residual = 2.32922e-05, No Iterations 2
DILUPBiCG:  Solving for k, Initial residual = 0.0504702, Final residual = 8.18561e-05, No Iterations 2
Before T+T solve
BiCG:  Solving for T+T, Initial residual = 0.00260072, Final residual = 0.000111214, No Iterations 3
Tres = -1.41483
TsRes = -0.11656
ExecutionTime = 0.05 s



Wall heat fluxes [W]
movingWall 0 0 0 0
left 0.00972291 6.28684e-17 0 0.00972291
right -1.42456 4.97607e-15 0 -1.42456
bottom 0 0 0 0
frontAndBack 0 0 0 0
sum -1.41483 5.03894e-15 0 -1.41483


Wall heat fluxes [W]
topAndBottom 0 0 0 0
left 1.43076 0 0 1.43076
right -1.54732 0 0 -1.54732
frontAndBack 0 0 0 0
sum -0.11656 0 0 -0.11656

Time = 17

DILUPBiCG:  Solving for Ux, Initial residual = 0.0510257, Final residual = 0.000464267, No Iterations 1
DILUPBiCG:  Solving for Uy, Initial residual = 0.0393496, Final residual = 0.000325072, No Iterations 1
DICPCG:  Solving for p_rgh, Initial residual = 0.139964, Final residual = 0.000935672, No Iterations 9
time step continuity errors : sum local = 0.0042729, global = -1.62061e-16, cumulative = 3.67235e-16
DILUPBiCG:  Solving for epsilon, Initial residual = 0.0271825, Final residual = 2.29458e-05, No Iterations 2
DILUPBiCG:  Solving for k, Initial residual = 0.0521538, Final residual = 8.8632e-05, No Iterations 2
Before T+T solve
BiCG:  Solving for T+T, Initial residual = 0.00263882, Final residual = 0.000225205, No Iterations 1
Tres = -1.40692
TsRes = -0.100346
ExecutionTime = 0.05 s



Wall heat fluxes [W]
movingWall 0 0 0 0
left 0.0131649 -1.49583e-16 0 0.0131649
right -1.42008 -8.14815e-15 0 -1.42008
bottom 0 0 0 0
frontAndBack 0 0 0 0
sum -1.40692 -8.29773e-15 0 -1.40692


Wall heat fluxes [W]
topAndBottom 0 0 0 0
left 1.4442 0 0 1.4442
right -1.54455 0 0 -1.54455
frontAndBack 0 0 0 0
sum -0.100346 0 0 -0.100346

Time = 18

DILUPBiCG:  Solving for Ux, Initial residual = 0.0523694, Final residual = 0.000449745, No Iterations 1
DILUPBiCG:  Solving for Uy, Initial residual = 0.0359271, Final residual = 0.000295599, No Iterations 1
DICPCG:  Solving for p_rgh, Initial residual = 0.15593, Final residual = 0.00136837, No Iterations 5
time step continuity errors : sum local = 0.00879333, global = -3.12343e-17, cumulative = 3.36001e-16
DILUPBiCG:  Solving for epsilon, Initial residual = 0.027263, Final residual = 2.32044e-05, No Iterations 2
DILUPBiCG:  Solving for k, Initial residual = 0.0530733, Final residual = 9.37005e-05, No Iterations 2
Before T+T solve
BiCG:  Solving for T+T, Initial residual = 0.0027529, Final residual = 0.000257489, No Iterations 1
Tres = -1.39829
TsRes = -0.124206
ExecutionTime = 0.05 s



Wall heat fluxes [W]
movingWall 0 0 0 0
left 0.0178967 -2.60145e-16 0 0.0178967
right -1.41619 -1.34017e-15 0 -1.41619
bottom 0 0 0 0
frontAndBack 0 0 0 0
sum -1.39829 -1.60032e-15 0 -1.39829


Wall heat fluxes [W]
topAndBottom 0 0 0 0
left 1.41741 0 0 1.41741
right -1.54162 0 0 -1.54162
frontAndBack 0 0 0 0
sum -0.124206 0 0 -0.124206

Time = 19

DILUPBiCG:  Solving for Ux, Initial residual = 0.0451276, Final residual = 0.000432273, No Iterations 1
DILUPBiCG:  Solving for Uy, Initial residual = 0.0326903, Final residual = 0.000268746, No Iterations 1
DICPCG:  Solving for p_rgh, Initial residual = 0.115338, Final residual = 0.000635656, No Iterations 9
time step continuity errors : sum local = 0.00295695, global = 2.76609e-17, cumulative = 3.63662e-16
DILUPBiCG:  Solving for epsilon, Initial residual = 0.0280004, Final residual = 2.56046e-05, No Iterations 2
DILUPBiCG:  Solving for k, Initial residual = 0.0545774, Final residual = 9.83822e-05, No Iterations 2
Before T+T solve
BiCG:  Solving for T+T, Initial residual = 0.00281004, Final residual = 0.000258739, No Iterations 1
Tres = -1.38769
TsRes = -0.124122
ExecutionTime = 0.05 s



Wall heat fluxes [W]
movingWall 0 0 0 0
left 0.023984 -3.51738e-16 0 0.023984
right -1.41167 2.2588e-15 0 -1.41167
bottom 0 0 0 0
frontAndBack 0 0 0 0
sum -1.38769 1.90706e-15 0 -1.38769


Wall heat fluxes [W]
topAndBottom 0 0 0 0
left 1.41457 0 0 1.41457
right -1.5387 0 0 -1.5387
frontAndBack 0 0 0 0
sum -0.124122 0 0 -0.124122

Time = 20

DILUPBiCG:  Solving for Ux, Initial residual = 0.0446196, Final residual = 0.000431548, No Iterations 1
DILUPBiCG:  Solving for Uy, Initial residual = 0.0288679, Final residual = 0.000247392, No Iterations 1
DICPCG:  Solving for p_rgh, Initial residual = 0.0938755, Final residual = 0.000890312, No Iterations 6
time step continuity errors : sum local = 0.0062915, global = 1.19114e-16, cumulative = 4.82776e-16
DILUPBiCG:  Solving for epsilon, Initial residual = 0.0307036, Final residual = 3.26797e-05, No Iterations 2
DILUPBiCG:  Solving for k, Initial residual = 0.0572832, Final residual = 0.000102345, No Iterations 2
Before T+T solve
BiCG:  Solving for T+T, Initial residual = 0.00288323, Final residual = 0.000268923, No Iterations 1
Tres = -1.37426
TsRes = -0.127593
ExecutionTime = 0.06 s



Wall heat fluxes [W]
movingWall 0 0 0 0
left 0.0317485 4.86688e-16 0 0.0317485
right -1.406 4.5198e-15 0 -1.406
bottom 0 0 0 0
frontAndBack 0 0 0 0
sum -1.37426 5.00649e-15 0 -1.37426


Wall heat fluxes [W]
topAndBottom 0 0 0 0
left 1.40822 0 0 1.40822
right -1.53581 0 0 -1.53581
frontAndBack 0 0 0 0
sum -0.127593 0 0 -0.127593

Time = 21

DILUPBiCG:  Solving for Ux, Initial residual = 0.0415066, Final residual = 0.000397259, No Iterations 1
DILUPBiCG:  Solving for Uy, Initial residual = 0.0299882, Final residual = 0.000281379, No Iterations 1
DICPCG:  Solving for p_rgh, Initial residual = 0.0937396, Final residual = 0.000645153, No Iterations 9
time step continuity errors : sum local = 0.00327899, global = -3.34843e-17, cumulative = 4.49291e-16
DILUPBiCG:  Solving for epsilon, Initial residual = 0.0337892, Final residual = 4.24291e-05, No Iterations 2
DILUPBiCG:  Solving for k, Initial residual = 0.0606553, Final residual = 0.000109534, No Iterations 2
Before T+T solve
BiCG:  Solving for T+T, Initial residual = 0.00294131, Final residual = 0.000280714, No Iterations 1
Tres = -1.35838
TsRes = -0.13103
ExecutionTime = 0.06 s



Wall heat fluxes [W]
movingWall 0 0 0 0
left 0.0411327 -3.03502e-17 0 0.0411327
right -1.39951 -9.06982e-16 0 -1.39951
bottom 0 0 0 0
frontAndBack 0 0 0 0
sum -1.35838 -9.37333e-16 0 -1.35838


Wall heat fluxes [W]
topAndBottom 0 0 0 0
left 1.40194 0 0 1.40194
right -1.53297 0 0 -1.53297
frontAndBack 0 0 0 0
sum -0.13103 0 0 -0.13103

Time = 22

DILUPBiCG:  Solving for Ux, Initial residual = 0.0394677, Final residual = 0.000363818, No Iterations 1
DILUPBiCG:  Solving for Uy, Initial residual = 0.0277069, Final residual = 0.000269644, No Iterations 1
DICPCG:  Solving for p_rgh, Initial residual = 0.108446, Final residual = 0.000729068, No Iterations 6
time step continuity errors : sum local = 0.00518023, global = 1.4029e-16, cumulative = 5.89581e-16
DILUPBiCG:  Solving for epsilon, Initial residual = 0.0362871, Final residual = 5.22661e-05, No Iterations 2
DILUPBiCG:  Solving for k, Initial residual = 0.0628699, Final residual = 0.000117902, No Iterations 2
Before T+T solve
BiCG:  Solving for T+T, Initial residual = 0.00298262, Final residual = 0.000291394, No Iterations 1
Tres = -1.33931
TsRes = -0.135868
ExecutionTime = 0.06 s



Wall heat fluxes [W]
movingWall 0 0 0 0
left 0.0524968 2.64481e-16 0 0.0524968
right -1.39181 6.33707e-15 0 -1.39181
bottom 0 0 0 0
frontAndBack 0 0 0 0
sum -1.33931 6.60155e-15 0 -1.33931


Wall heat fluxes [W]
topAndBottom 0 0 0 0
left 1.39427 0 0 1.39427
right -1.53014 0 0 -1.53014
frontAndBack 0 0 0 0
sum -0.135868 0 0 -0.135868

Time = 23

DILUPBiCG:  Solving for Ux, Initial residual = 0.0357812, Final residual = 0.000327906, No Iterations 1
DILUPBiCG:  Solving for Uy, Initial residual = 0.0251258, Final residual = 3.38896e-06, No Iterations 2
DICPCG:  Solving for p_rgh, Initial residual = 0.107893, Final residual = 0.000965057, No Iterations 9
time step continuity errors : sum local = 0.0045967, global = 7.81851e-17, cumulative = 6.67766e-16
DILUPBiCG:  Solving for epsilon, Initial residual = 0.0379251, Final residual = 6.19416e-05, No Iterations 2
DILUPBiCG:  Solving for k, Initial residual = 0.0652539, Final residual = 0.000131004, No Iterations 2
Before T+T solve
BiCG:  Solving for T+T, Initial residual = 0.00297962, Final residual = 0.00024488, No Iterations 2
Tres = -1.3171
TsRes = -0.13632
ExecutionTime = 0.06 s



Wall heat fluxes [W]
movingWall 0 0 0 0
left 0.0665259 -1.36576e-16 0 0.0665259
right -1.38363 4.06605e-15 0 -1.38363
bottom 0 0 0 0
frontAndBack 0 0 0 0
sum -1.3171 3.92947e-15 0 -1.3171


Wall heat fluxes [W]
topAndBottom 0 0 0 0
left 1.38623 0 0 1.38623
right -1.52255 0 0 -1.52255
frontAndBack 0 0 0 0
sum -0.13632 0 0 -0.13632

Time = 24

DILUPBiCG:  Solving for Ux, Initial residual = 0.0319239, Final residual = 0.000289725, No Iterations 1
DILUPBiCG:  Solving for Uy, Initial residual = 0.0211577, Final residual = 3.02308e-06, No Iterations 2
DICPCG:  Solving for p_rgh, Initial residual = 0.0919572, Final residual = 0.000573451, No Iterations 6
time step continuity errors : sum local = 0.00419249, global = -1.13985e-17, cumulative = 6.56368e-16
DILUPBiCG:  Solving for epsilon, Initial residual = 0.0391953, Final residual = 7.51958e-05, No Iterations 2
DILUPBiCG:  Solving for k, Initial residual = 0.0667748, Final residual = 0.000144129, No Iterations 2
Before T+T solve
BiCG:  Solving for T+T, Initial residual = 0.00293756, Final residual = 0.000245705, No Iterations 2
Tres = -1.29194
TsRes = -0.134978
ExecutionTime = 0.06 s



Wall heat fluxes [W]
movingWall 0 0 0 0
left 0.0821645 1.88605e-16 0 0.0821645
right -1.3741 -2.26117e-15 0 -1.3741
bottom 0 0 0 0
frontAndBack 0 0 0 0
sum -1.29194 -2.07257e-15 0 -1.29194


Wall heat fluxes [W]
topAndBottom 0 0 0 0
left 1.37971 0 0 1.37971
right -1.51469 0 0 -1.51469
frontAndBack 0 0 0 0
sum -0.134978 0 0 -0.134978

Time = 25

DILUPBiCG:  Solving for Ux, Initial residual = 0.0284914, Final residual = 0.000273707, No Iterations 1
DILUPBiCG:  Solving for Uy, Initial residual = 0.0184223, Final residual = 5.92812e-06, No Iterations 2
DICPCG:  Solving for p_rgh, Initial residual = 0.059429, Final residual = 0.000543878, No Iterations 10
time step continuity errors : sum local = 0.00314029, global = -2.24993e-18, cumulative = 6.54118e-16
DILUPBiCG:  Solving for epsilon, Initial residual = 0.0411249, Final residual = 9.64166e-05, No Iterations 2
DILUPBiCG:  Solving for k, Initial residual = 0.0689063, Final residual = 0.000154805, No Iterations 2
Before T+T solve
BiCG:  Solving for T+T, Initial residual = 0.00285847, Final residual = 0.000252586, No Iterations 2
Tres = -1.26442
TsRes = -0.137229
ExecutionTime = 0.07 s



Wall heat fluxes [W]
movingWall 0 0 0 0
left 0.0990275 6.02669e-16 0 0.0990275
right -1.36344 -9.04106e-16 0 -1.36344
bottom 0 0 0 0
frontAndBack 0 0 0 0
sum -1.26442 -3.01437e-16 0 -1.26442


Wall heat fluxes [W]
topAndBottom 0 0 0 0
left 1.3694 0 0 1.3694
right -1.50663 0 0 -1.50663
frontAndBack 0 0 0 0
sum -0.137229 0 0 -0.137229

Time = 26

DILUPBiCG:  Solving for Ux, Initial residual = 0.0263461, Final residual = 0.000254982, No Iterations 1
DILUPBiCG:  Solving for Uy, Initial residual = 0.0187636, Final residual = 2.75806e-06, No Iterations 2
DICPCG:  Solving for p_rgh, Initial residual = 0.050738, Final residual = 0.000350435, No Iterations 6
time step continuity errors : sum local = 0.00247191, global = 1.27187e-16, cumulative = 7.81305e-16
DILUPBiCG:  Solving for epsilon, Initial residual = 0.0424654, Final residual = 0.000133646, No Iterations 2
DILUPBiCG:  Solving for k, Initial residual = 0.0710045, Final residual = 0.000161588, No Iterations 2
Before T+T solve
BiCG:  Solving for T+T, Initial residual = 0.00278115, Final residual = 0.000260646, No Iterations 2
Tres = -1.23407
TsRes = -0.140778
ExecutionTime = 0.07 s



Wall heat fluxes [W]
movingWall 0 0 0 0
left 0.117231 -1.3831e-15 0 0.117231
right -1.3513 8.60251e-15 0 -1.3513
bottom 0 0 0 0
frontAndBack 0 0 0 0
sum -1.23407 7.21941e-15 0 -1.23407


Wall heat fluxes [W]
topAndBottom 0 0 0 0
left 1.35767 0 0 1.35767
right -1.49845 0 0 -1.49845
frontAndBack 0 0 0 0
sum -0.140778 0 0 -0.140778

Time = 27

DILUPBiCG:  Solving for Ux, Initial residual = 0.0238494, Final residual = 0.000231929, No Iterations 1
DILUPBiCG:  Solving for Uy, Initial residual = 0.0190623, Final residual = 2.72417e-06, No Iterations 2
DICPCG:  Solving for p_rgh, Initial residual = 0.0471845, Final residual = 0.000410364, No Iterations 6
time step continuity errors : sum local = 0.00302889, global = 3.4146e-17, cumulative = 8.15451e-16
DILUPBiCG:  Solving for epsilon, Initial residual = 0.0428192, Final residual = 0.000157654, No Iterations 2
DILUPBiCG:  Solving for k, Initial residual = 0.0725717, Final residual = 0.000162907, No Iterations 2
Before T+T solve
BiCG:  Solving for T+T, Initial residual = 0.00270379, Final residual = 0.000143495, No Iterations 3
Tres = -1.20703
TsRes = -0.116646
ExecutionTime = 0.07 s



Wall heat fluxes [W]
movingWall 0 0 0 0
left 0.135821 1.25737e-15 0 0.135821
right -1.34285 4.48463e-16 0 -1.34285
bottom 0 0 0 0
frontAndBack 0 0 0 0
sum -1.20703 1.70583e-15 0 -1.20703


Wall heat fluxes [W]
topAndBottom 0 0 0 0
left 1.34959 0 0 1.34959
right -1.46624 0 0 -1.46624
frontAndBack 0 0 0 0
sum -0.116646 0 0 -0.116646

Time = 28

DILUPBiCG:  Solving for Ux, Initial residual = 0.0215872, Final residual = 0.00021033, No Iterations 1
DILUPBiCG:  Solving for Uy, Initial residual = 0.018621, Final residual = 2.39584e-06, No Iterations 2
DICPCG:  Solving for p_rgh, Initial residual = 0.0494168, Final residual = 0.000310459, No Iterations 11
time step continuity errors : sum local = 0.00174361, global = -9.44971e-17, cumulative = 7.20954e-16
DILUPBiCG:  Solving for epsilon, Initial residual = 0.0425036, Final residual = 0.000126589, No Iterations 2
DILUPBiCG:  Solving for k, Initial residual = 0.073245, Final residual = 0.000160147, No Iterations 2
Before T+T solve
BiCG:  Solving for T+T, Initial residual = 0.00252503, Final residual = 0.000193442, No Iterations 2
Tres = -1.17151
TsRes = -0.108129
ExecutionTime = 0.07 s



Wall heat fluxes [W]
movingWall 0 0 0 0
left 0.155469 -6.15676e-16 0 0.155469
right -1.32698 -4.06352e-15 0 -1.32698
bottom 0 0 0 0
frontAndBack 0 0 0 0
sum -1.17151 -4.6792e-15 0 -1.17151


Wall heat fluxes [W]
topAndBottom 0 0 0 0
left 1.35058 0 0 1.35058
right -1.45871 0 0 -1.45871
frontAndBack 0 0 0 0
sum -0.108129 0 0 -0.108129

Time = 29

DILUPBiCG:  Solving for Ux, Initial residual = 0.021535, Final residual = 0.000192912, No Iterations 1
DILUPBiCG:  Solving for Uy, Initial residual = 0.0168161, Final residual = 2.54601e-06, No Iterations 2
DICPCG:  Solving for p_rgh, Initial residual = 0.0437559, Final residual = 0.00042211, No Iterations 5
time step continuity errors : sum local = 0.00242426, global = 2.18376e-16, cumulative = 9.3933e-16
DILUPBiCG:  Solving for epsilon, Initial residual = 0.0417825, Final residual = 9.92936e-05, No Iterations 2
DILUPBiCG:  Solving for k, Initial residual = 0.0730134, Final residual = 0.000155893, No Iterations 2
Before T+T solve
BiCG:  Solving for T+T, Initial residual = 0.00244882, Final residual = 0.000136261, No Iterations 3
Tres = -1.14093
TsRes = -0.109052
ExecutionTime = 0.07 s



Wall heat fluxes [W]
movingWall 0 0 0 0
left 0.174969 -6.24348e-16 0 0.174969
right -1.3159 1.45233e-14 0 -1.3159
bottom 0 0 0 0
frontAndBack 0 0 0 0
sum -1.14093 1.3899e-14 0 -1.14093


Wall heat fluxes [W]
topAndBottom 0 0 0 0
left 1.31992 0 0 1.31992
right -1.42897 0 0 -1.42897
frontAndBack 0 0 0 0
sum -0.109052 0 0 -0.109052

Time = 30

DILUPBiCG:  Solving for Ux, Initial residual = 0.0172903, Final residual = 3.59877e-06, No Iterations 2
DILUPBiCG:  Solving for Uy, Initial residual = 0.0158624, Final residual = 3.13998e-06, No Iterations 2
DICPCG:  Solving for p_rgh, Initial residual = 0.0336388, Final residual = 0.000295133, No Iterations 7
time step continuity errors : sum local = 0.00232439, global = -1.14614e-16, cumulative = 8.24716e-16
DILUPBiCG:  Solving for epsilon, Initial residual = 0.0409627, Final residual = 6.92714e-05, No Iterations 2
DILUPBiCG:  Solving for k, Initial residual = 0.072603, Final residual = 0.00014867, No Iterations 2
Before T+T solve
BiCG:  Solving for T+T, Initial residual = 0.00226795, Final residual = 0.000187609, No Iterations 2
Tres = -1.10267
TsRes = -0.101724
ExecutionTime = 0.08 s



Wall heat fluxes [W]
movingWall 0 0 0 0
left 0.194888 -1.23135e-15 0 0.194888
right -1.29755 -3.16946e-15 0 -1.29755
bottom 0 0 0 0
frontAndBack 0 0 0 0
sum -1.10267 -4.40081e-15 0 -1.10267


Wall heat fluxes [W]
topAndBottom 0 0 0 0
left 1.32067 0 0 1.32067
right -1.42239 0 0 -1.42239
frontAndBack 0 0 0 0
sum -0.101724 0 0 -0.101724

Time = 31

DILUPBiCG:  Solving for Ux, Initial residual = 0.0174047, Final residual = 5.40425e-08, No Iterations 3
DILUPBiCG:  Solving for Uy, Initial residual = 0.0166997, Final residual = 0.000155241, No Iterations 1
DICPCG:  Solving for p_rgh, Initial residual = 0.0233934, Final residual = 0.000160514, No Iterations 11
time step continuity errors : sum local = 0.000899148, global = 7.59683e-17, cumulative = 9.00684e-16
DILUPBiCG:  Solving for epsilon, Initial residual = 0.0401294, Final residual = 5.4334e-05, No Iterations 2
DILUPBiCG:  Solving for k, Initial residual = 0.0717966, Final residual = 0.000165162, No Iterations 2
Before T+T solve
BiCG:  Solving for T+T, Initial residual = 0.00224296, Final residual = 0.000126279, No Iterations 3
Tres = -1.07002
TsRes = -0.106377
ExecutionTime = 0.08 s



Wall heat fluxes [W]
movingWall 0 0 0 0
left 0.214156 -3.39923e-15 0 0.214156
right -1.28418 7.72043e-15 0 -1.28418
bottom 0 0 0 0
frontAndBack 0 0 0 0
sum -1.07002 4.3212e-15 0 -1.07002


Wall heat fluxes [W]
topAndBottom 0 0 0 0
left 1.28777 0 0 1.28777
right -1.39414 0 0 -1.39414
frontAndBack 0 0 0 0
sum -0.106377 0 0 -0.106377

Time = 32

DILUPBiCG:  Solving for Ux, Initial residual = 0.0158483, Final residual = 0.000137146, No Iterations 1
DILUPBiCG:  Solving for Uy, Initial residual = 0.0194042, Final residual = 0.000167517, No Iterations 1
DICPCG:  Solving for p_rgh, Initial residual = 0.0261528, Final residual = 0.000251141, No Iterations 7
time step continuity errors : sum local = 0.00201491, global = 6.4851e-17, cumulative = 9.65535e-16
DILUPBiCG:  Solving for epsilon, Initial residual = 0.0388704, Final residual = 4.52337e-05, No Iterations 2
DILUPBiCG:  Solving for k, Initial residual = 0.0706588, Final residual = 8.61382e-05, No Iterations 2
Before T+T solve
BiCG:  Solving for T+T, Initial residual = 0.00216536, Final residual = 0.000190638, No Iterations 2
Tres = -1.03104
TsRes = -0.100759
ExecutionTime = 0.08 s



Wall heat fluxes [W]
movingWall 0 0 0 0
left 0.233134 -7.80435e-16 0 0.233134
right -1.26417 4.08954e-15 0 -1.26417
bottom 0 0 0 0
frontAndBack 0 0 0 0
sum -1.03104 3.3091e-15 0 -1.03104


Wall heat fluxes [W]
topAndBottom 0 0 0 0
left 1.28687 0 0 1.28687
right -1.38763 0 0 -1.38763
frontAndBack 0 0 0 0
sum -0.100759 0 0 -0.100759

Time = 33

DILUPBiCG:  Solving for Ux, Initial residual = 0.0193926, Final residual = 2.24076e-05, No Iterations 2
DILUPBiCG:  Solving for Uy, Initial residual = 0.0225129, Final residual = 0.000179794, No Iterations 1
DICPCG:  Solving for p_rgh, Initial residual = 0.0379752, Final residual = 0.000261653, No Iterations 10
time step continuity errors : sum local = 0.00158487, global = -1.33143e-16, cumulative = 8.32392e-16
DILUPBiCG:  Solving for epsilon, Initial residual = 0.0381888, Final residual = 4.19657e-05, No Iterations 2
DILUPBiCG:  Solving for k, Initial residual = 0.068687, Final residual = 9.34105e-05, No Iterations 2
Before T+T solve
BiCG:  Solving for T+T, Initial residual = 0.00222166, Final residual = 0.000118654, No Iterations 3
Tres = -0.998011
TsRes = -0.103406
ExecutionTime = 0.08 s



Wall heat fluxes [W]
movingWall 0 0 0 0
left 0.251002 -1.38744e-15 0 0.251002
right -1.24901 -4.55555e-15 0 -1.24901
bottom 0 0 0 0
frontAndBack 0 0 0 0
sum -0.998011 -5.94299e-15 0 -0.998011


Wall heat fluxes [W]
topAndBottom 0 0 0 0
left 1.25624 0 0 1.25624
right -1.35965 0 0 -1.35965
frontAndBack 0 0 0 0
sum -0.103406 0 0 -0.103406

Time = 34

DILUPBiCG:  Solving for Ux, Initial residual = 0.0215355, Final residual = 0.000134107, No Iterations 1
DILUPBiCG:  Solving for Uy, Initial residual = 0.0268508, Final residual = 0.00020141, No Iterations 1
DICPCG:  Solving for p_rgh, Initial residual = 0.0571167, Final residual = 0.000368902, No Iterations 5
time step continuity errors : sum local = 0.00336562, global = 1.7073e-16, cumulative = 1.00312e-15
DILUPBiCG:  Solving for epsilon, Initial residual = 0.0376386, Final residual = 3.00669e-05, No Iterations 2
DILUPBiCG:  Solving for k, Initial residual = 0.0661407, Final residual = 8.94362e-05, No Iterations 2
Before T+T solve
BiCG:  Solving for T+T, Initial residual = 0.00219757, Final residual = 0.000194644, No Iterations 2
Tres = -0.959714
TsRes = -0.0987336
ExecutionTime = 0.08 s



Wall heat fluxes [W]
movingWall 0 0 0 0
left 0.268076 5.2029e-16 0 0.268076
right -1.22779 7.3156e-15 0 -1.22779
bottom 0 0 0 0
frontAndBack 0 0 0 0
sum -0.959714 7.83589e-15 0 -0.959714


Wall heat fluxes [W]
topAndBottom 0 0 0 0
left 1.25437 0 0 1.25437
right -1.35311 0 0 -1.35311
frontAndBack 0 0 0 0
sum -0.0987336 0 0 -0.0987336

Time = 35

DILUPBiCG:  Solving for Ux, Initial residual = 0.024281, Final residual = 0.000154816, No Iterations 1
DILUPBiCG:  Solving for Uy, Initial residual = 0.0315335, Final residual = 0.000234814, No Iterations 1
DICPCG:  Solving for p_rgh, Initial residual = 0.0864132, Final residual = 0.000759386, No Iterations 5
time step continuity errors : sum local = 0.00693016, global = -2.13876e-16, cumulative = 7.89246e-16
DILUPBiCG:  Solving for epsilon, Initial residual = 0.0368965, Final residual = 2.84717e-05, No Iterations 2
DILUPBiCG:  Solving for k, Initial residual = 0.0632771, Final residual = 8.25484e-05, No Iterations 2
Before T+T solve
BiCG:  Solving for T+T, Initial residual = 0.00228798, Final residual = 0.000119412, No Iterations 3
Tres = -0.92803
TsRes = -0.101455
ExecutionTime = 0.09 s



Wall heat fluxes [W]
movingWall 0 0 0 0
left 0.28357 -1.66493e-15 0 0.28357
right -1.2116 -6.39041e-15 0 -1.2116
bottom 0 0 0 0
frontAndBack 0 0 0 0
sum -0.92803 -8.05534e-15 0 -0.92803


Wall heat fluxes [W]
topAndBottom 0 0 0 0
left 1.22309 0 0 1.22309
right -1.32454 0 0 -1.32454
frontAndBack 0 0 0 0
sum -0.101455 0 0 -0.101455

Time = 36

DILUPBiCG:  Solving for Ux, Initial residual = 0.028592, Final residual = 0.000152976, No Iterations 1
DILUPBiCG:  Solving for Uy, Initial residual = 0.0357315, Final residual = 0.00024579, No Iterations 1
DICPCG:  Solving for p_rgh, Initial residual = 0.0901857, Final residual = 0.000728861, No Iterations 9
time step continuity errors : sum local = 0.00465557, global = -1.37246e-16, cumulative = 6.52e-16
DILUPBiCG:  Solving for epsilon, Initial residual = 0.036314, Final residual = 2.60761e-05, No Iterations 2
DILUPBiCG:  Solving for k, Initial residual = 0.0598932, Final residual = 7.65221e-05, No Iterations 2
Before T+T solve
BiCG:  Solving for T+T, Initial residual = 0.0022775, Final residual = 0.000208468, No Iterations 2
Tres = -0.890836
TsRes = -0.097368
ExecutionTime = 0.09 s



Wall heat fluxes [W]
movingWall 0 0 0 0
left 0.298447 6.9372e-16 0 0.298447
right -1.18928 -9.12762e-15 0 -1.18928
bottom 0 0 0 0
frontAndBack 0 0 0 0
sum -0.890836 -8.4339e-15 0 -0.890836


Wall heat fluxes [W]
topAndBottom 0 0 0 0
left 1.22023 0 0 1.22023
right -1.31759 0 0 -1.31759
frontAndBack 0 0 0 0
sum -0.097368 0 0 -0.097368

Time = 37

DILUPBiCG:  Solving for Ux, Initial residual = 0.0294949, Final residual = 0.000176206, No Iterations 1
DILUPBiCG:  Solving for Uy, Initial residual = 0.0358616, Final residual = 0.000247169, No Iterations 1
DICPCG:  Solving for p_rgh, Initial residual = 0.099405, Final residual = 0.00047561, No Iterations 5
time step continuity errors : sum local = 0.00369154, global = -1.41216e-16, cumulative = 5.10784e-16
DILUPBiCG:  Solving for epsilon, Initial residual = 0.0346194, Final residual = 2.74158e-05, No Iterations 2
DILUPBiCG:  Solving for k, Initial residual = 0.0563741, Final residual = 7.79746e-05, No Iterations 2
Before T+T solve
BiCG:  Solving for T+T, Initial residual = 0.00232303, Final residual = 0.000131769, No Iterations 3
Tres = -0.860587
TsRes = -0.0984485
ExecutionTime = 0.09 s



Wall heat fluxes [W]
movingWall 0 0 0 0
left 0.311375 7.28406e-16 0 0.311375
right -1.17196 -9.11348e-15 0 -1.17196
bottom 0 0 0 0
frontAndBack 0 0 0 0
sum -0.860587 -8.38507e-15 0 -0.860587


Wall heat fluxes [W]
topAndBottom 0 0 0 0
left 1.18993 0 0 1.18993
right -1.28837 0 0 -1.28837
frontAndBack 0 0 0 0
sum -0.0984485 0 0 -0.0984485

Time = 38

DILUPBiCG:  Solving for Ux, Initial residual = 0.0302001, Final residual = 0.000160102, No Iterations 1
DILUPBiCG:  Solving for Uy, Initial residual = 0.0387261, Final residual = 0.000274531, No Iterations 1
DICPCG:  Solving for p_rgh, Initial residual = 0.0991277, Final residual = 0.000529515, No Iterations 5
time step continuity errors : sum local = 0.00477514, global = 1.14085e-16, cumulative = 6.24869e-16
DILUPBiCG:  Solving for epsilon, Initial residual = 0.0319927, Final residual = 4.89284e-05, No Iterations 2
DILUPBiCG:  Solving for k, Initial residual = 0.0526058, Final residual = 8.98861e-05, No Iterations 2
Before T+T solve
BiCG:  Solving for T+T, Initial residual = 0.00227845, Final residual = 0.00022783, No Iterations 2
Tres = -0.825828
TsRes = -0.0941576
ExecutionTime = 0.09 s



Wall heat fluxes [W]
movingWall 0 0 0 0
left 0.323131 1.69961e-15 0 0.323131
right -1.14896 3.6489e-15 0 -1.14896
bottom 0 0 0 0
frontAndBack 0 0 0 0
sum -0.825828 5.34851e-15 0 -0.825828


Wall heat fluxes [W]
topAndBottom 0 0 0 0
left 1.18646 0 0 1.18646
right -1.28061 0 0 -1.28061
frontAndBack 0 0 0 0
sum -0.0941576 0 0 -0.0941576

Time = 39

DILUPBiCG:  Solving for Ux, Initial residual = 0.0280248, Final residual = 0.000153176, No Iterations 1
DILUPBiCG:  Solving for Uy, Initial residual = 0.0403119, Final residual = 0.000281897, No Iterations 1
DICPCG:  Solving for p_rgh, Initial residual = 0.092928, Final residual = 0.000809963, No Iterations 5
time step continuity errors : sum local = 0.007693, global = -2.73962e-16, cumulative = 3.50907e-16
DILUPBiCG:  Solving for epsilon, Initial residual = 0.0288775, Final residual = 6.25407e-05, No Iterations 2
DILUPBiCG:  Solving for k, Initial residual = 0.0490314, Final residual = 0.000128684, No Iterations 2
Before T+T solve
BiCG:  Solving for T+T, Initial residual = 0.00227428, Final residual = 0.000144772, No Iterations 3
Tres = -0.798602
TsRes = -0.0914574
ExecutionTime = 0.09 s



Wall heat fluxes [W]
movingWall 0 0 0 0
left 0.333147 -3.12174e-16 0 0.333147
right -1.13175 -1.46475e-14 0 -1.13175
bottom 0 0 0 0
frontAndBack 0 0 0 0
sum -0.798602 -1.49597e-14 0 -0.798602


Wall heat fluxes [W]
topAndBottom 0 0 0 0
left 1.15922 0 0 1.15922
right -1.25067 0 0 -1.25067
frontAndBack 0 0 0 0
sum -0.0914574 0 0 -0.0914574

Time = 40

DILUPBiCG:  Solving for Ux, Initial residual = 0.0283542, Final residual = 0.000141781, No Iterations 1
DILUPBiCG:  Solving for Uy, Initial residual = 0.040215, Final residual = 0.000282475, No Iterations 1
DICPCG:  Solving for p_rgh, Initial residual = 0.100829, Final residual = 0.000971539, No Iterations 9
time step continuity errors : sum local = 0.00677513, global = 2.52654e-16, cumulative = 6.03561e-16
DILUPBiCG:  Solving for epsilon, Initial residual = 0.0268543, Final residual = 2.58342e-05, No Iterations 2
DILUPBiCG:  Solving for k, Initial residual = 0.0471162, Final residual = 0.000215407, No Iterations 2
Before T+T solve
BiCG:  Solving for T+T, Initial residual = 0.00220661, Final residual = 9.95526e-05, No Iterations 3
Tres = -0.768163
TsRes = -0.0620235
ExecutionTime = 0.1 s



Wall heat fluxes [W]
movingWall 0 0 0 0
left 0.342313 4.89073e-15 0 0.342313
right -1.11048 5.48828e-15 0 -1.11048
bottom 0 0 0 0
frontAndBack 0 0 0 0
sum -0.768163 1.0379e-14 0 -0.768163


Wall heat fluxes [W]
topAndBottom 0 0 0 0
left 1.15708 0 0 1.15708
right -1.21911 0 0 -1.21911
frontAndBack 0 0 0 0
sum -0.0620235 0 0 -0.0620235

Time = 41

DILUPBiCG:  Solving for Ux, Initial residual = 0.0276288, Final residual = 0.000154363, No Iterations 1
DILUPBiCG:  Solving for Uy, Initial residual = 0.0366617, Final residual = 0.000253525, No Iterations 1
DICPCG:  Solving for p_rgh, Initial residual = 0.101002, Final residual = 0.000871554, No Iterations 4
time step continuity errors : sum local = 0.00650961, global = 1.70995e-16, cumulative = 7.74555e-16
DILUPBiCG:  Solving for epsilon, Initial residual = 0.024623, Final residual = 1.70982e-05, No Iterations 2
DILUPBiCG:  Solving for k, Initial residual = 0.0448574, Final residual = 0.000275097, No Iterations 2
Before T+T solve
BiCG:  Solving for T+T, Initial residual = 0.00212202, Final residual = 0.000129, No Iterations 3
Tres = -0.741987
TsRes = -0.0616099
ExecutionTime = 0.1 s



Wall heat fluxes [W]
movingWall 0 0 0 0
left 0.349994 2.84425e-15 0 0.349994
right -1.09198 5.51238e-15 0 -1.09198
bottom 0 0 0 0
frontAndBack 0 0 0 0
sum -0.741987 8.35663e-15 0 -0.741987


Wall heat fluxes [W]
topAndBottom 0 0 0 0
left 1.13641 0 0 1.13641
right -1.19802 0 0 -1.19802
frontAndBack 0 0 0 0
sum -0.0616099 0 0 -0.0616099

Time = 42

DILUPBiCG:  Solving for Ux, Initial residual = 0.0271072, Final residual = 0.000145775, No Iterations 1
DILUPBiCG:  Solving for Uy, Initial residual = 0.037457, Final residual = 0.00026787, No Iterations 1
DICPCG:  Solving for p_rgh, Initial residual = 0.0965673, Final residual = 0.000493933, No Iterations 5
time step continuity errors : sum local = 0.00452807, global = -3.05594e-16, cumulative = 4.68962e-16
DILUPBiCG:  Solving for epsilon, Initial residual = 0.0216335, Final residual = 1.24958e-05, No Iterations 2
DILUPBiCG:  Solving for k, Initial residual = 0.0415352, Final residual = 0.000247372, No Iterations 2
Before T+T solve
BiCG:  Solving for T+T, Initial residual = 0.00204338, Final residual = 9.49158e-05, No Iterations 3
Tres = -0.725441
TsRes = -0.0454176
ExecutionTime = 0.1 s



Wall heat fluxes [W]
movingWall 0 0 0 0
left 0.356155 -5.54976e-16 0 0.356155
right -1.0816 -1.4708e-14 0 -1.0816
bottom 0 0 0 0
frontAndBack 0 0 0 0
sum -0.725441 -1.5263e-14 0 -0.725441


Wall heat fluxes [W]
topAndBottom 0 0 0 0
left 1.12768 0 0 1.12768
right -1.17309 0 0 -1.17309
frontAndBack 0 0 0 0
sum -0.0454176 0 0 -0.0454176

Time = 43

DILUPBiCG:  Solving for Ux, Initial residual = 0.0251576, Final residual = 0.000135564, No Iterations 1
DILUPBiCG:  Solving for Uy, Initial residual = 0.0363589, Final residual = 0.000251264, No Iterations 1
DICPCG:  Solving for p_rgh, Initial residual = 0.0583876, Final residual = 0.000441238, No Iterations 5
time step continuity errors : sum local = 0.00446156, global = -1.21232e-16, cumulative = 3.4773e-16
DILUPBiCG:  Solving for epsilon, Initial residual = 0.0186982, Final residual = 1.05044e-05, No Iterations 2
DILUPBiCG:  Solving for k, Initial residual = 0.0381783, Final residual = 0.000201193, No Iterations 2
Before T+T solve
BiCG:  Solving for T+T, Initial residual = 0.00195387, Final residual = 0.000111931, No Iterations 3
Tres = -0.710898
TsRes = -0.0408586
ExecutionTime = 0.1 s



Wall heat fluxes [W]
movingWall 0 0 0 0
left 0.361436 2.35865e-15 0 0.361436
right -1.07233 -9.21137e-15 0 -1.07233
bottom 0 0 0 0
frontAndBack 0 0 0 0
sum -0.710898 -6.85272e-15 0 -0.710898


Wall heat fluxes [W]
topAndBottom 0 0 0 0
left 1.11429 0 0 1.11429
right -1.15515 0 0 -1.15515
frontAndBack 0 0 0 0
sum -0.0408586 0 0 -0.0408586

Time = 44

DILUPBiCG:  Solving for Ux, Initial residual = 0.0247858, Final residual = 0.000135942, No Iterations 1
DILUPBiCG:  Solving for Uy, Initial residual = 0.0349958, Final residual = 0.000228263, No Iterations 1
DICPCG:  Solving for p_rgh, Initial residual = 0.0486542, Final residual = 0.000432944, No Iterations 5
time step continuity errors : sum local = 0.00458464, global = 3.04932e-16, cumulative = 6.52662e-16
DILUPBiCG:  Solving for epsilon, Initial residual = 0.0164151, Final residual = 1.6905e-05, No Iterations 2
DILUPBiCG:  Solving for k, Initial residual = 0.0366079, Final residual = 0.000177104, No Iterations 2
Before T+T solve
BiCG:  Solving for T+T, Initial residual = 0.00187096, Final residual = 7.46716e-05, No Iterations 3
Tres = -0.694897
TsRes = -0.0301908
ExecutionTime = 0.1 s



Wall heat fluxes [W]
movingWall 0 0 0 0
left 0.365896 1.04058e-15 0 0.365896
right -1.06079 1.47187e-14 0 -1.06079
bottom 0 0 0 0
frontAndBack 0 0 0 0
sum -0.694897 1.57592e-14 0 -0.694897


Wall heat fluxes [W]
topAndBottom 0 0 0 0
left 1.10592 0 0 1.10592
right -1.13612 0 0 -1.13612
frontAndBack 0 0 0 0
sum -0.0301908 0 0 -0.0301908

Time = 45

DILUPBiCG:  Solving for Ux, Initial residual = 0.022409, Final residual = 1.64495e-06, No Iterations 2
DILUPBiCG:  Solving for Uy, Initial residual = 0.0291599, Final residual = 0.000202003, No Iterations 1
DICPCG:  Solving for p_rgh, Initial residual = 0.0445246, Final residual = 0.000377071, No Iterations 6
time step continuity errors : sum local = 0.00406488, global = 2.26085e-16, cumulative = 8.78747e-16
DILUPBiCG:  Solving for epsilon, Initial residual = 0.0147257, Final residual = 8.47482e-06, No Iterations 2
DILUPBiCG:  Solving for k, Initial residual = 0.0342792, Final residual = 0.000159377, No Iterations 2
Before T+T solve
BiCG:  Solving for T+T, Initial residual = 0.00179976, Final residual = 9.11279e-05, No Iterations 3
Tres = -0.680475
TsRes = -0.0247428
ExecutionTime = 0.11 s



Wall heat fluxes [W]
movingWall 0 0 0 0
left 0.369906 3.4686e-16 0 0.369906
right -1.05038 1.28705e-14 0 -1.05038
bottom 0 0 0 0
frontAndBack 0 0 0 0
sum -0.680475 1.32174e-14 0 -0.680475


Wall heat fluxes [W]
topAndBottom 0 0 0 0
left 1.09558 0 0 1.09558
right -1.12032 0 0 -1.12032
frontAndBack 0 0 0 0
sum -0.0247428 0 0 -0.0247428

Time = 46

DILUPBiCG:  Solving for Ux, Initial residual = 0.0211024, Final residual = 0.000149895, No Iterations 1
DILUPBiCG:  Solving for Uy, Initial residual = 0.0242653, Final residual = 0.000177739, No Iterations 1
DICPCG:  Solving for p_rgh, Initial residual = 0.0397547, Final residual = 0.000382044, No Iterations 5
time step continuity errors : sum local = 0.00368517, global = -1.31555e-16, cumulative = 7.47192e-16
DILUPBiCG:  Solving for epsilon, Initial residual = 0.0135458, Final residual = 6.01888e-06, No Iterations 2
DILUPBiCG:  Solving for k, Initial residual = 0.0322762, Final residual = 0.00012821, No Iterations 2
Before T+T solve
BiCG:  Solving for T+T, Initial residual = 0.00171652, Final residual = 6.59502e-05, No Iterations 3
Tres = -0.664737
TsRes = -0.0182145
ExecutionTime = 0.11 s



Wall heat fluxes [W]
movingWall 0 0 0 0
left 0.373361 1.04058e-15 0 0.373361
right -1.0381 -1.01331e-14 0 -1.0381
bottom 0 0 0 0
frontAndBack 0 0 0 0
sum -0.664737 -9.09255e-15 0 -0.664737


Wall heat fluxes [W]
topAndBottom 0 0 0 0
left 1.0861 0 0 1.0861
right -1.10432 0 0 -1.10432
frontAndBack 0 0 0 0
sum -0.0182145 0 0 -0.0182145

Time = 47

DILUPBiCG:  Solving for Ux, Initial residual = 0.0190126, Final residual = 0.000110724, No Iterations 1
DILUPBiCG:  Solving for Uy, Initial residual = 0.0205404, Final residual = 0.000165952, No Iterations 1
DICPCG:  Solving for p_rgh, Initial residual = 0.0340367, Final residual = 0.000304542, No Iterations 5
time step continuity errors : sum local = 0.00269796, global = 4.22987e-16, cumulative = 1.17018e-15
DILUPBiCG:  Solving for epsilon, Initial residual = 0.0123275, Final residual = 5.37723e-06, No Iterations 2
DILUPBiCG:  Solving for k, Initial residual = 0.0304828, Final residual = 0.00012852, No Iterations 2
Before T+T solve
BiCG:  Solving for T+T, Initial residual = 0.00165254, Final residual = 7.56404e-05, No Iterations 3
Tres = -0.649545
TsRes = -0.0144536
ExecutionTime = 0.11 s



Wall heat fluxes [W]
movingWall 0 0 0 0
left 0.376756 -2.49739e-15 0 0.376756
right -1.0263 2.48668e-14 0 -1.0263
bottom 0 0 0 0
frontAndBack 0 0 0 0
sum -0.649545 2.23694e-14 0 -0.649545


Wall heat fluxes [W]
topAndBottom 0 0 0 0
left 1.07527 0 0 1.07527
right -1.08972 0 0 -1.08972
frontAndBack 0 0 0 0
sum -0.0144536 0 0 -0.0144536

Time = 48

DILUPBiCG:  Solving for Ux, Initial residual = 0.0177572, Final residual = 0.000109626, No Iterations 1
DILUPBiCG:  Solving for Uy, Initial residual = 0.0178548, Final residual = 0.000154621, No Iterations 1
DICPCG:  Solving for p_rgh, Initial residual = 0.0307582, Final residual = 0.000259083, No Iterations 5
time step continuity errors : sum local = 0.00181345, global = -3.4146e-17, cumulative = 1.13603e-15
DILUPBiCG:  Solving for epsilon, Initial residual = 0.0114356, Final residual = 5.24046e-06, No Iterations 2
DILUPBiCG:  Solving for k, Initial residual = 0.0287315, Final residual = 0.000114749, No Iterations 2
Before T+T solve
BiCG:  Solving for T+T, Initial residual = 0.00159421, Final residual = 0.000159207, No Iterations 1
Tres = -0.632307
TsRes = -0.0255183
ExecutionTime = 0.11 s



Wall heat fluxes [W]
movingWall 0 0 0 0
left 0.380037 3.4686e-16 0 0.380037
right -1.01234 -1.83809e-15 0 -1.01234
bottom 0 0 0 0
frontAndBack 0 0 0 0
sum -0.632307 -1.49123e-15 0 -0.632307


Wall heat fluxes [W]
topAndBottom 0 0 0 0
left 1.06303 0 0 1.06303
right -1.08855 0 0 -1.08855
frontAndBack 0 0 0 0
sum -0.0255183 0 0 -0.0255183

Time = 49

DILUPBiCG:  Solving for Ux, Initial residual = 0.016519, Final residual = 0.000108498, No Iterations 1
DILUPBiCG:  Solving for Uy, Initial residual = 0.01646, Final residual = 0.000147088, No Iterations 1
DICPCG:  Solving for p_rgh, Initial residual = 0.029481, Final residual = 0.000267291, No Iterations 5
time step continuity errors : sum local = 0.00220093, global = 3.4146e-17, cumulative = 1.17018e-15
DILUPBiCG:  Solving for epsilon, Initial residual = 0.0106708, Final residual = 5.00352e-06, No Iterations 2
DILUPBiCG:  Solving for k, Initial residual = 0.0272228, Final residual = 9.28682e-05, No Iterations 2
Before T+T solve
BiCG:  Solving for T+T, Initial residual = 0.00156825, Final residual = 0.000110752, No Iterations 3
Tres = -0.618993
TsRes = -0.0237937
ExecutionTime = 0.11 s



Wall heat fluxes [W]
movingWall 0 0 0 0
left 0.383426 -4.85604e-16 0 0.383426
right -1.00242 1.83824e-15 0 -1.00242
bottom 0 0 0 0
frontAndBack 0 0 0 0
sum -0.618993 1.35264e-15 0 -0.618993


Wall heat fluxes [W]
topAndBottom 0 0 0 0
left 1.05005 0 0 1.05005
right -1.07384 0 0 -1.07384
frontAndBack 0 0 0 0
sum -0.0237937 0 0 -0.0237937

Time = 50

DILUPBiCG:  Solving for Ux, Initial residual = 0.0158439, Final residual = 0.000107147, No Iterations 1
DILUPBiCG:  Solving for Uy, Initial residual = 0.0150171, Final residual = 0.000133579, No Iterations 1
DICPCG:  Solving for p_rgh, Initial residual = 0.0285896, Final residual = 0.000138036, No Iterations 10
time step continuity errors : sum local = 0.000873225, global = -1.03762e-16, cumulative = 1.06642e-15
DILUPBiCG:  Solving for epsilon, Initial residual = 0.00994857, Final residual = 4.70451e-06, No Iterations 2
DILUPBiCG:  Solving for k, Initial residual = 0.0257451, Final residual = 7.91608e-05, No Iterations 2
Before T+T solve
BiCG:  Solving for T+T, Initial residual = 0.00151865, Final residual = 7.78537e-05, No Iterations 3
Tres = -0.604632
TsRes = -0.00663021
ExecutionTime = 0.12 s



Wall heat fluxes [W]
movingWall 0 0 0 0
left 0.386876 2.35865e-15 0 0.386876
right -0.991507 -1.10679e-14 0 -0.991507
bottom 0 0 0 0
frontAndBack 0 0 0 0
sum -0.604632 -8.70927e-15 0 -0.604632


Wall heat fluxes [W]
topAndBottom 0 0 0 0
left 1.04718 0 0 1.04718
right -1.05381 0 0 -1.05381
frontAndBack 0 0 0 0
sum -0.00663021 0 0 -0.00663021

Time = 51

DILUPBiCG:  Solving for Ux, Initial residual = 0.013572, Final residual = 9.42963e-05, No Iterations 1
DILUPBiCG:  Solving for Uy, Initial residual = 0.014106, Final residual = 0.00012463, No Iterations 1
DICPCG:  Solving for p_rgh, Initial residual = 0.0279191, Final residual = 0.000242216, No Iterations 5
time step continuity errors : sum local = 0.0020491, global = -1.792e-16, cumulative = 8.87217e-16
DILUPBiCG:  Solving for epsilon, Initial residual = 0.00898862, Final residual = 3.03492e-06, No Iterations 2
DILUPBiCG:  Solving for k, Initial residual = 0.0238551, Final residual = 6.92592e-05, No Iterations 2
Before T+T solve
BiCG:  Solving for T+T, Initial residual = 0.00143718, Final residual = 0.000100003, No Iterations 3
Tres = -0.591638
TsRes = -0.00580935
ExecutionTime = 0.12 s



Wall heat fluxes [W]
movingWall 0 0 0 0
left 0.390573 -4.37044e-15 0 0.390573
right -0.982211 -3.70172e-15 0 -0.982211
bottom 0 0 0 0
frontAndBack 0 0 0 0
sum -0.591638 -8.07215e-15 0 -0.591638


Wall heat fluxes [W]
topAndBottom 0 0 0 0
left 1.03726 0 0 1.03726
right -1.04307 0 0 -1.04307
frontAndBack 0 0 0 0
sum -0.00580935 0 0 -0.00580935

Time = 52

DILUPBiCG:  Solving for Ux, Initial residual = 0.0132869, Final residual = 9.80054e-05, No Iterations 1
DILUPBiCG:  Solving for Uy, Initial residual = 0.0138506, Final residual = 0.00012297, No Iterations 1
DICPCG:  Solving for p_rgh, Initial residual = 0.0269535, Final residual = 0.000227884, No Iterations 9
time step continuity errors : sum local = 0.00140511, global = 4.20869e-17, cumulative = 9.29304e-16
DILUPBiCG:  Solving for epsilon, Initial residual = 0.00803883, Final residual = 2.78476e-06, No Iterations 2
DILUPBiCG:  Solving for k, Initial residual = 0.0219219, Final residual = 6.32316e-05, No Iterations 2
Before T+T solve
BiCG:  Solving for T+T, Initial residual = 0.00139835, Final residual = 6.49695e-05, No Iterations 3
Tres = -0.578555
TsRes = 0.00374394
ExecutionTime = 0.12 s



Wall heat fluxes [W]
movingWall 0 0 0 0
left 0.394593 2.983e-15 0 0.394593
right -0.973147 -9.29597e-16 0 -0.973147
bottom 0 0 0 0
frontAndBack 0 0 0 0
sum -0.578555 2.0534e-15 0 -0.578555


Wall heat fluxes [W]
topAndBottom 0 0 0 0
left 1.03193 0 0 1.03193
right -1.02818 0 0 -1.02818
frontAndBack 0 0 0 0
sum 0.00374394 0 0 0.00374394

Time = 53

DILUPBiCG:  Solving for Ux, Initial residual = 0.0122092, Final residual = 9.17575e-05, No Iterations 1
DILUPBiCG:  Solving for Uy, Initial residual = 0.0132468, Final residual = 0.000118155, No Iterations 1
DICPCG:  Solving for p_rgh, Initial residual = 0.0254801, Final residual = 0.000227649, No Iterations 5
time step continuity errors : sum local = 0.00185272, global = 1.34731e-16, cumulative = 1.06404e-15
DILUPBiCG:  Solving for epsilon, Initial residual = 0.00716786, Final residual = 2.85343e-06, No Iterations 2
DILUPBiCG:  Solving for k, Initial residual = 0.0200205, Final residual = 6.56513e-05, No Iterations 2
Before T+T solve
BiCG:  Solving for T+T, Initial residual = 0.00135286, Final residual = 7.57611e-05, No Iterations 3
Tres = -0.566337
TsRes = 0.0102145
ExecutionTime = 0.12 s



Wall heat fluxes [W]
movingWall 0 0 0 0
left 0.398998 3.67672e-15 0 0.398998
right -0.965335 -3.4839e-18 0 -0.965335
bottom 0 0 0 0
frontAndBack 0 0 0 0
sum -0.566337 3.67323e-15 0 -0.566337


Wall heat fluxes [W]
topAndBottom 0 0 0 0
left 1.02724 0 0 1.02724
right -1.01703 0 0 -1.01703
frontAndBack 0 0 0 0
sum 0.0102145 0 0 0.0102145

Time = 54

DILUPBiCG:  Solving for Ux, Initial residual = 0.0117453, Final residual = 9.4282e-05, No Iterations 1
DILUPBiCG:  Solving for Uy, Initial residual = 0.0129501, Final residual = 0.000121949, No Iterations 1
DICPCG:  Solving for p_rgh, Initial residual = 0.0241566, Final residual = 0.000155813, No Iterations 9
time step continuity errors : sum local = 0.000947984, global = 3.22138e-16, cumulative = 1.38617e-15
DILUPBiCG:  Solving for epsilon, Initial residual = 0.00653606, Final residual = 2.86235e-06, No Iterations 2
DILUPBiCG:  Solving for k, Initial residual = 0.0185212, Final residual = 7.54757e-05, No Iterations 2
Before T+T solve
BiCG:  Solving for T+T, Initial residual = 0.00132248, Final residual = 0.000130674, No Iterations 1
Tres = -0.552879
TsRes = 0.00693801
ExecutionTime = 0.12 s



Wall heat fluxes [W]
movingWall 0 0 0 0
left 0.403732 3.4686e-15 0 0.403732
right -0.95661 1.20097e-14 0 -0.95661
bottom 0 0 0 0
frontAndBack 0 0 0 0
sum -0.552879 1.54783e-14 0 -0.552879


Wall heat fluxes [W]
topAndBottom 0 0 0 0
left 1.02311 0 0 1.02311
right -1.01617 0 0 -1.01617
frontAndBack 0 0 0 0
sum 0.00693801 0 0 0.00693801

Time = 55

DILUPBiCG:  Solving for Ux, Initial residual = 0.0110433, Final residual = 9.43478e-05, No Iterations 1
DILUPBiCG:  Solving for Uy, Initial residual = 0.0126966, Final residual = 0.000121832, No Iterations 1
DICPCG:  Solving for p_rgh, Initial residual = 0.0234053, Final residual = 0.000213594, No Iterations 5
time step continuity errors : sum local = 0.00166099, global = -2.41669e-16, cumulative = 1.1445e-15
DILUPBiCG:  Solving for epsilon, Initial residual = 0.0059886, Final residual = 3.02707e-06, No Iterations 2
DILUPBiCG:  Solving for k, Initial residual = 0.0169911, Final residual = 0.000101632, No Iterations 2
Before T+T solve
BiCG:  Solving for T+T, Initial residual = 0.00132676, Final residual = 8.24867e-05, No Iterations 3
Tres = -0.542326
TsRes = 0.018355
ExecutionTime = 0.12 s



Wall heat fluxes [W]
movingWall 0 0 0 0
left 0.408941 1.66493e-15 0 0.408941
right -0.951267 -1.571e-14 0 -0.951267
bottom 0 0 0 0
frontAndBack 0 0 0 0
sum -0.542326 -1.40451e-14 0 -0.542326


Wall heat fluxes [W]
topAndBottom 0 0 0 0
left 1.02223 0 0 1.02223
right -1.00387 0 0 -1.00387
frontAndBack 0 0 0 0
sum 0.018355 0 0 0.018355

Time = 56

DILUPBiCG:  Solving for Ux, Initial residual = 0.0107373, Final residual = 8.87214e-05, No Iterations 1
DILUPBiCG:  Solving for Uy, Initial residual = 0.0116284, Final residual = 1.71515e-06, No Iterations 2
DICPCG:  Solving for p_rgh, Initial residual = 0.0211146, Final residual = 0.000122348, No Iterations 9
time step continuity errors : sum local = 0.000733675, global = 1.6623e-16, cumulative = 1.31073e-15
DILUPBiCG:  Solving for epsilon, Initial residual = 0.00569028, Final residual = 3.38435e-06, No Iterations 2
DILUPBiCG:  Solving for k, Initial residual = 0.0157523, Final residual = 5.38898e-07, No Iterations 3
Before T+T solve
BiCG:  Solving for T+T, Initial residual = 0.00129246, Final residual = 0.000125205, No Iterations 1
Tres = -0.529977
TsRes = 0.016726
ExecutionTime = 0.13 s



Wall heat fluxes [W]
movingWall 0 0 0 0
left 0.414445 1.38744e-15 0 0.414445
right -0.944422 6.45733e-15 0 -0.944422
bottom 0 0 0 0
frontAndBack 0 0 0 0
sum -0.529977 7.84477e-15 0 -0.529977


Wall heat fluxes [W]
topAndBottom 0 0 0 0
left 1.01927 0 0 1.01927
right -1.00255 0 0 -1.00255
frontAndBack 0 0 0 0
sum 0.016726 0 0 0.016726

Time = 57

DILUPBiCG:  Solving for Ux, Initial residual = 0.00950221, Final residual = 8.95879e-05, No Iterations 1
DILUPBiCG:  Solving for Uy, Initial residual = 0.0111336, Final residual = 1.65614e-06, No Iterations 2
DICPCG:  Solving for p_rgh, Initial residual = 0.0198132, Final residual = 0.000176249, No Iterations 5
time step continuity errors : sum local = 0.00134389, global = 2.64698e-17, cumulative = 1.3372e-15
DILUPBiCG:  Solving for epsilon, Initial residual = 0.00550479, Final residual = 3.98432e-06, No Iterations 2
DILUPBiCG:  Solving for k, Initial residual = 0.0146713, Final residual = 4.99e-07, No Iterations 3
Before T+T solve
BiCG:  Solving for T+T, Initial residual = 0.00128574, Final residual = 7.10448e-05, No Iterations 3
Tres = -0.520504
TsRes = 0.031083
ExecutionTime = 0.13 s



Wall heat fluxes [W]
movingWall 0 0 0 0
left 0.420354 -5.54976e-16 0 0.420354
right -0.940858 3.69071e-15 0 -0.940858
bottom 0 0 0 0
frontAndBack 0 0 0 0
sum -0.520504 3.13573e-15 0 -0.520504


Wall heat fluxes [W]
topAndBottom 0 0 0 0
left 1.01929 0 0 1.01929
right -0.98821 0 0 -0.98821
frontAndBack 0 0 0 0
sum 0.031083 0 0 0.031083

Time = 58

DILUPBiCG:  Solving for Ux, Initial residual = 0.00944162, Final residual = 8.0374e-05, No Iterations 1
DILUPBiCG:  Solving for Uy, Initial residual = 0.00993702, Final residual = 1.4953e-06, No Iterations 2
DICPCG:  Solving for p_rgh, Initial residual = 0.0175959, Final residual = 0.000163522, No Iterations 9
time step continuity errors : sum local = 0.000945113, global = 1.63858e-16, cumulative = 1.50106e-15
DILUPBiCG:  Solving for epsilon, Initial residual = 0.00543202, Final residual = 4.7236e-06, No Iterations 2
DILUPBiCG:  Solving for k, Initial residual = 0.0137879, Final residual = 4.78748e-07, No Iterations 3
Before T+T solve
BiCG:  Solving for T+T, Initial residual = 0.00124532, Final residual = 0.000116248, No Iterations 1
Tres = -0.509097
TsRes = 0.0301131
ExecutionTime = 0.13 s



Wall heat fluxes [W]
movingWall 0 0 0 0
left 0.426482 4.85604e-16 0 0.426482
right -0.93558 8.3174e-15 0 -0.93558
bottom 0 0 0 0
frontAndBack 0 0 0 0
sum -0.509097 8.803e-15 0 -0.509097


Wall heat fluxes [W]
topAndBottom 0 0 0 0
left 1.01724 0 0 1.01724
right -0.987124 0 0 -0.987124
frontAndBack 0 0 0 0
sum 0.0301131 0 0 0.0301131

Time = 59

DILUPBiCG:  Solving for Ux, Initial residual = 0.00835565, Final residual = 8.15187e-05, No Iterations 1
DILUPBiCG:  Solving for Uy, Initial residual = 0.00943284, Final residual = 1.45846e-06, No Iterations 2
DICPCG:  Solving for p_rgh, Initial residual = 0.01659, Final residual = 0.000149366, No Iterations 5
time step continuity errors : sum local = 0.00107674, global = -3.17902e-16, cumulative = 1.18316e-15
DILUPBiCG:  Solving for epsilon, Initial residual = 0.00532787, Final residual = 5.35812e-06, No Iterations 2
DILUPBiCG:  Solving for k, Initial residual = 0.0131296, Final residual = 4.56828e-07, No Iterations 3
Before T+T solve
BiCG:  Solving for T+T, Initial residual = 0.00123997, Final residual = 6.86823e-05, No Iterations 3
Tres = -0.500366
TsRes = 0.0424848
ExecutionTime = 0.13 s



Wall heat fluxes [W]
movingWall 0 0 0 0
left 0.432873 -3.4686e-15 0 0.432873
right -0.933239 -1.01691e-14 0 -0.933239
bottom 0 0 0 0
frontAndBack 0 0 0 0
sum -0.500366 -1.36377e-14 0 -0.500366


Wall heat fluxes [W]
topAndBottom 0 0 0 0
left 1.01765 0 0 1.01765
right -0.975163 0 0 -0.975163
frontAndBack 0 0 0 0
sum 0.0424848 0 0 0.0424848

Time = 60

DILUPBiCG:  Solving for Ux, Initial residual = 0.00841904, Final residual = 6.98049e-05, No Iterations 1
DILUPBiCG:  Solving for Uy, Initial residual = 0.00818096, Final residual = 1.30109e-06, No Iterations 2
DICPCG:  Solving for p_rgh, Initial residual = 0.0150399, Final residual = 0.000125838, No Iterations 6
time step continuity errors : sum local = 0.00107244, global = 2.04611e-16, cumulative = 1.38777e-15
DILUPBiCG:  Solving for epsilon, Initial residual = 0.00528441, Final residual = 5.69066e-06, No Iterations 2
DILUPBiCG:  Solving for k, Initial residual = 0.012629, Final residual = 0.000118178, No Iterations 2
Before T+T solve
BiCG:  Solving for T+T, Initial residual = 0.00121453, Final residual = 0.000107079, No Iterations 1
Tres = -0.489947
TsRes = 0.0419059
ExecutionTime = 0.13 s



Wall heat fluxes [W]
movingWall 0 0 0 0
left 0.439493 6.03536e-15 0 0.439493
right -0.929441 2.77941e-15 0 -0.929441
bottom 0 0 0 0
frontAndBack 0 0 0 0
sum -0.489947 8.81477e-15 0 -0.489947


Wall heat fluxes [W]
topAndBottom 0 0 0 0
left 1.01606 0 0 1.01606
right -0.974156 0 0 -0.974156
frontAndBack 0 0 0 0
sum 0.0419059 0 0 0.0419059

Time = 61

DILUPBiCG:  Solving for Ux, Initial residual = 0.00745726, Final residual = 7.05315e-05, No Iterations 1
DILUPBiCG:  Solving for Uy, Initial residual = 0.00791593, Final residual = 1.27042e-06, No Iterations 2
DICPCG:  Solving for p_rgh, Initial residual = 0.0146109, Final residual = 5.97863e-05, No Iterations 11
time step continuity errors : sum local = 0.000322858, global = 5.51101e-16, cumulative = 1.93887e-15
DILUPBiCG:  Solving for epsilon, Initial residual = 0.00517436, Final residual = 5.32232e-06, No Iterations 2
DILUPBiCG:  Solving for k, Initial residual = 0.0122102, Final residual = 0.000105292, No Iterations 2
Before T+T solve
BiCG:  Solving for T+T, Initial residual = 0.00119613, Final residual = 0.000108239, No Iterations 2
Tres = -0.480678
TsRes = 0.0438872
ExecutionTime = 0.14 s



Wall heat fluxes [W]
movingWall 0 0 0 0
left 0.446075 3.53797e-15 0 0.446075
right -0.926753 2.4995e-14 0 -0.926753
bottom 0 0 0 0
frontAndBack 0 0 0 0
sum -0.480678 2.8533e-14 0 -0.480678


Wall heat fluxes [W]
topAndBottom 0 0 0 0
left 1.01519 0 0 1.01519
right -0.971307 0 0 -0.971307
frontAndBack 0 0 0 0
sum 0.0438872 0 0 0.0438872

Time = 62

DILUPBiCG:  Solving for Ux, Initial residual = 0.00788679, Final residual = 6.01951e-05, No Iterations 1
DILUPBiCG:  Solving for Uy, Initial residual = 0.0064698, Final residual = 1.12014e-06, No Iterations 2
DICPCG:  Solving for p_rgh, Initial residual = 0.0137629, Final residual = 0.000119814, No Iterations 5
time step continuity errors : sum local = 0.000681107, global = 3.08638e-16, cumulative = 2.24751e-15
DILUPBiCG:  Solving for epsilon, Initial residual = 0.00515171, Final residual = 4.81521e-06, No Iterations 2
DILUPBiCG:  Solving for k, Initial residual = 0.0119169, Final residual = 9.61498e-05, No Iterations 2
Before T+T solve
BiCG:  Solving for T+T, Initial residual = 0.00118405, Final residual = 0.000102646, No Iterations 2
Tres = -0.471464
TsRes = 0.0456068
ExecutionTime = 0.14 s



Wall heat fluxes [W]
movingWall 0 0 0 0
left 0.452704 1.38744e-16 0 0.452704
right -0.924168 1.47989e-14 0 -0.924168
bottom 0 0 0 0
frontAndBack 0 0 0 0
sum -0.471464 1.49376e-14 0 -0.471464


Wall heat fluxes [W]
topAndBottom 0 0 0 0
left 1.01428 0 0 1.01428
right -0.968669 0 0 -0.968669
frontAndBack 0 0 0 0
sum 0.0456068 0 0 0.0456068

Time = 63

DILUPBiCG:  Solving for Ux, Initial residual = 0.00736182, Final residual = 5.65356e-05, No Iterations 1
DILUPBiCG:  Solving for Uy, Initial residual = 0.00613269, Final residual = 1.09132e-06, No Iterations 2
DICPCG:  Solving for p_rgh, Initial residual = 0.0137127, Final residual = 0.000101517, No Iterations 5
time step continuity errors : sum local = 0.000544135, global = 4.87044e-17, cumulative = 2.29622e-15
DILUPBiCG:  Solving for epsilon, Initial residual = 0.00514204, Final residual = 4.22885e-06, No Iterations 2
DILUPBiCG:  Solving for k, Initial residual = 0.0116675, Final residual = 9.45483e-05, No Iterations 2
Before T+T solve
BiCG:  Solving for T+T, Initial residual = 0.00117302, Final residual = 0.000103499, No Iterations 2
Tres = -0.462583
TsRes = 0.0475688
ExecutionTime = 0.14 s



Wall heat fluxes [W]
movingWall 0 0 0 0
left 0.459335 -4.16232e-16 0 0.459335
right -0.921918 4.62077e-15 0 -0.921918
bottom 0 0 0 0
frontAndBack 0 0 0 0
sum -0.462583 4.20454e-15 0 -0.462583


Wall heat fluxes [W]
topAndBottom 0 0 0 0
left 1.01368 0 0 1.01368
right -0.966109 0 0 -0.966109
frontAndBack 0 0 0 0
sum 0.0475688 0 0 0.0475688

Time = 64

DILUPBiCG:  Solving for Ux, Initial residual = 0.00710557, Final residual = 5.36749e-05, No Iterations 1
DILUPBiCG:  Solving for Uy, Initial residual = 0.00607721, Final residual = 1.10911e-06, No Iterations 2
DICPCG:  Solving for p_rgh, Initial residual = 0.0138296, Final residual = 8.99737e-05, No Iterations 5
time step continuity errors : sum local = 0.000479274, global = 2.93289e-16, cumulative = 2.5895e-15
DILUPBiCG:  Solving for epsilon, Initial residual = 0.00512576, Final residual = 3.71206e-06, No Iterations 2
DILUPBiCG:  Solving for k, Initial residual = 0.011521, Final residual = 9.83931e-05, No Iterations 2
Before T+T solve
BiCG:  Solving for T+T, Initial residual = 0.00116143, Final residual = 0.000102633, No Iterations 2
Tres = -0.453948
TsRes = 0.0493464
ExecutionTime = 0.14 s



Wall heat fluxes [W]
movingWall 0 0 0 0
left 0.465886 2.49739e-15 0 0.465886
right -0.919834 1.20266e-14 0 -0.919834
bottom 0 0 0 0
frontAndBack 0 0 0 0
sum -0.453948 1.4524e-14 0 -0.453948


Wall heat fluxes [W]
topAndBottom 0 0 0 0
left 1.01296 0 0 1.01296
right -0.963618 0 0 -0.963618
frontAndBack 0 0 0 0
sum 0.0493464 0 0 0.0493464

Time = 65

DILUPBiCG:  Solving for Ux, Initial residual = 0.00694187, Final residual = 5.06481e-05, No Iterations 1
DILUPBiCG:  Solving for Uy, Initial residual = 0.00601313, Final residual = 1.11003e-06, No Iterations 2
DICPCG:  Solving for p_rgh, Initial residual = 0.0139295, Final residual = 8.41355e-05, No Iterations 5
time step continuity errors : sum local = 0.000436039, global = -1.34996e-16, cumulative = 2.45451e-15
DILUPBiCG:  Solving for epsilon, Initial residual = 0.00513257, Final residual = 3.32199e-06, No Iterations 2
DILUPBiCG:  Solving for k, Initial residual = 0.0114273, Final residual = 0.000104523, No Iterations 2
Before T+T solve
BiCG:  Solving for T+T, Initial residual = 0.00114911, Final residual = 0.000102134, No Iterations 2
Tres = -0.445556
TsRes = 0.0509397
ExecutionTime = 0.14 s



Wall heat fluxes [W]
movingWall 0 0 0 0
left 0.472297 5.54976e-16 0 0.472297
right -0.917853 -8.33274e-15 0 -0.917853
bottom 0 0 0 0
frontAndBack 0 0 0 0
sum -0.445556 -7.77776e-15 0 -0.445556


Wall heat fluxes [W]
topAndBottom 0 0 0 0
left 1.0121 0 0 1.0121
right -0.961163 0 0 -0.961163
frontAndBack 0 0 0 0
sum 0.0509397 0 0 0.0509397

Time = 66

DILUPBiCG:  Solving for Ux, Initial residual = 0.00685564, Final residual = 4.77614e-05, No Iterations 1
DILUPBiCG:  Solving for Uy, Initial residual = 0.00591309, Final residual = 1.08257e-06, No Iterations 2
DICPCG:  Solving for p_rgh, Initial residual = 0.0140405, Final residual = 8.38752e-05, No Iterations 5
time step continuity errors : sum local = 0.000433943, global = 3.42784e-16, cumulative = 2.79729e-15
DILUPBiCG:  Solving for epsilon, Initial residual = 0.00518644, Final residual = 3.04107e-06, No Iterations 2
DILUPBiCG:  Solving for k, Initial residual = 0.011394, Final residual = 0.000110658, No Iterations 2
Before T+T solve
BiCG:  Solving for T+T, Initial residual = 0.00113616, Final residual = 0.000101575, No Iterations 2
Tres = -0.437397
TsRes = 0.0523321
ExecutionTime = 0.15 s



Wall heat fluxes [W]
movingWall 0 0 0 0
left 0.47852 7.49218e-15 0 0.47852
right -0.915917 5.54429e-15 0 -0.915917
bottom 0 0 0 0
frontAndBack 0 0 0 0
sum -0.437397 1.30365e-14 0 -0.437397


Wall heat fluxes [W]
topAndBottom 0 0 0 0
left 1.01106 0 0 1.01106
right -0.958731 0 0 -0.958731
frontAndBack 0 0 0 0
sum 0.0523321 0 0 0.0523321

Time = 67

DILUPBiCG:  Solving for Ux, Initial residual = 0.00681393, Final residual = 4.56388e-05, No Iterations 1
DILUPBiCG:  Solving for Uy, Initial residual = 0.00586523, Final residual = 1.04018e-06, No Iterations 2
DICPCG:  Solving for p_rgh, Initial residual = 0.0140713, Final residual = 8.65647e-05, No Iterations 5
time step continuity errors : sum local = 0.000471564, global = -1.79995e-17, cumulative = 2.77929e-15
DILUPBiCG:  Solving for epsilon, Initial residual = 0.0052067, Final residual = 2.82297e-06, No Iterations 2
DILUPBiCG:  Solving for k, Initial residual = 0.0113955, Final residual = 4.32645e-07, No Iterations 3
Before T+T solve
BiCG:  Solving for T+T, Initial residual = 0.00112253, Final residual = 0.000101305, No Iterations 2
Tres = -0.429443
TsRes = 0.0535483
ExecutionTime = 0.15 s



Wall heat fluxes [W]
movingWall 0 0 0 0
left 0.484498 -7.28406e-15 0 0.484498
right -0.91394 1.01822e-14 0 -0.91394
bottom 0 0 0 0
frontAndBack 0 0 0 0
sum -0.429443 2.89819e-15 0 -0.429443


Wall heat fluxes [W]
topAndBottom 0 0 0 0
left 1.00986 0 0 1.00986
right -0.956312 0 0 -0.956312
frontAndBack 0 0 0 0
sum 0.0535483 0 0 0.0535483

Time = 68

DILUPBiCG:  Solving for Ux, Initial residual = 0.00678944, Final residual = 4.49631e-05, No Iterations 1
DILUPBiCG:  Solving for Uy, Initial residual = 0.00586742, Final residual = 5.73736e-05, No Iterations 1
DICPCG:  Solving for p_rgh, Initial residual = 0.0141528, Final residual = 9.00643e-05, No Iterations 5
time step continuity errors : sum local = 0.000532366, global = -1.13555e-16, cumulative = 2.66574e-15
DILUPBiCG:  Solving for epsilon, Initial residual = 0.00521207, Final residual = 2.58282e-06, No Iterations 2
DILUPBiCG:  Solving for k, Initial residual = 0.0113627, Final residual = 4.30867e-07, No Iterations 3
Before T+T solve
BiCG:  Solving for T+T, Initial residual = 0.00110848, Final residual = 0.000101166, No Iterations 2
Tres = -0.421779
TsRes = 0.0545636
ExecutionTime = 0.15 s



Wall heat fluxes [W]
movingWall 0 0 0 0
[...]
DILUPBiCG:  Solving for Uy, Initial residual = 2.64509e-15, Final residual = 2.679e-19, No Iterations 2
DICPCG:  Solving for p_rgh, Initial residual = 7.65823e-15, Final residual = 7.64343e-17, No Iterations 4
time step continuity errors : sum local = 3.71742e-15, global = 3.37754e-16, cumulative = 1.6713e-15
DILUPBiCG:  Solving for epsilon, Initial residual = 2.36888e-16, Final residual = 1.47311e-18, No Iterations 2
DILUPBiCG:  Solving for k, Initial residual = 5.49979e-16, Final residual = 6.38556e-20, No Iterations 3
Before T+T solve
BiCG:  Solving for T+T, Initial residual = 4.96388e-15, Final residual = 2.05495e-16, No Iterations 4
Tres = 1.30137e-14
TsRes = 0.0912896
ExecutionTime = 3.95 s



Wall heat fluxes [W]
movingWall 0 0 0 0
left 0.730747 1.1377e-14 0 0.730747
right -0.730747 -4.67508e-16 0 -0.730747
bottom 0 0 0 0
frontAndBack 0 0 0 0
sum 2.22045e-15 1.09095e-14 0 1.31299e-14


Wall heat fluxes [W]
topAndBottom 0 0 0 0
left 0.822037 0 0 0.822037
right -0.730747 0 0 -0.730747
frontAndBack 0 0 0 0
sum 0.0912896 0 0 0.0912896

Time = 1985

DILUPBiCG:  Solving for Ux, Initial residual = 1.8242e-15, Final residual = 4.27838e-19, No Iterations 2
DILUPBiCG:  Solving for Uy, Initial residual = 3.52006e-15, Final residual = 4.6579e-19, No Iterations 2
DICPCG:  Solving for p_rgh, Initial residual = 8.88735e-15, Final residual = 4.18025e-17, No Iterations 10
time step continuity errors : sum local = 4.16687e-15, global = -1.0535e-16, cumulative = 1.56595e-15
DILUPBiCG:  Solving for epsilon, Initial residual = 3.97911e-16, Final residual = 5.83197e-19, No Iterations 2
DILUPBiCG:  Solving for k, Initial residual = 7.85816e-16, Final residual = 3.17391e-18, No Iterations 2
Before T+T solve
BiCG:  Solving for T+T, Initial residual = 4.78782e-15, Final residual = 3.284e-16, No Iterations 4
Tres = -7.34421e-15
TsRes = 0.0912896
ExecutionTime = 3.95 s



Wall heat fluxes [W]
movingWall 0 0 0 0
left 0.730747 -4.99478e-15 0 0.730747
right -0.730747 2.33273e-15 0 -0.730747
bottom 0 0 0 0
frontAndBack 0 0 0 0
sum -2.77556e-15 -2.66206e-15 0 -5.43762e-15


Wall heat fluxes [W]
topAndBottom 0 0 0 0
left 0.822037 0 0 0.822037
right -0.730747 0 0 -0.730747
frontAndBack 0 0 0 0
sum 0.0912896 0 0 0.0912896

Time = 1986

DILUPBiCG:  Solving for Ux, Initial residual = 2.71027e-15, Final residual = 1.78265e-17, No Iterations 1
DILUPBiCG:  Solving for Uy, Initial residual = 2.93245e-15, Final residual = 2.46446e-19, No Iterations 2
DICPCG:  Solving for p_rgh, Initial residual = 8.24579e-15, Final residual = 4.34217e-17, No Iterations 10
time step continuity errors : sum local = 5.06685e-15, global = 5.2569e-16, cumulative = 2.09164e-15
DILUPBiCG:  Solving for epsilon, Initial residual = 2.70172e-16, Final residual = 4.40924e-19, No Iterations 2
DILUPBiCG:  Solving for k, Initial residual = 6.96849e-16, Final residual = 8.03882e-19, No Iterations 2
Before T+T solve
BiCG:  Solving for T+T, Initial residual = 4.80042e-15, Final residual = 2.7605e-16, No Iterations 2
Tres = 1.58494e-14
TsRes = 0.0912896
ExecutionTime = 3.96 s



Wall heat fluxes [W]
movingWall 0 0 0 0
left 0.730747 1.88692e-14 0 0.730747
right -0.730747 -9.32398e-16 0 -0.730747
bottom 0 0 0 0
frontAndBack 0 0 0 0
sum -1.66533e-15 1.79368e-14 0 1.62715e-14


Wall heat fluxes [W]
topAndBottom 0 0 0 0
left 0.822037 0 0 0.822037
right -0.730747 0 0 -0.730747
frontAndBack 0 0 0 0
sum 0.0912896 0 0 0.0912896

Time = 1987

DILUPBiCG:  Solving for Ux, Initial residual = 3.508e-15, Final residual = 2.96765e-17, No Iterations 1
DILUPBiCG:  Solving for Uy, Initial residual = 2.96544e-15, Final residual = 3.17071e-19, No Iterations 2
DICPCG:  Solving for p_rgh, Initial residual = 7.50289e-15, Final residual = 3.95812e-17, No Iterations 10
time step continuity errors : sum local = 3.49242e-15, global = 6.19393e-17, cumulative = 2.15358e-15
DILUPBiCG:  Solving for epsilon, Initial residual = 2.591e-16, Final residual = 9.38294e-20, No Iterations 2
DILUPBiCG:  Solving for k, Initial residual = 6.67071e-16, Final residual = 9.74034e-19, No Iterations 2
Before T+T solve
BiCG:  Solving for T+T, Initial residual = 4.28452e-15, Final residual = 3.23844e-16, No Iterations 3
Tres = -1.65539e-16
TsRes = 0.0912896
ExecutionTime = 3.96 s



Wall heat fluxes [W]
movingWall 0 0 0 0
left 0.730747 -3.05237e-15 0 0.730747
right -0.730747 8.41009e-15 0 -0.730747
bottom 0 0 0 0
frontAndBack 0 0 0 0
sum -3.21965e-15 5.35772e-15 0 2.13808e-15


Wall heat fluxes [W]
topAndBottom 0 0 0 0
left 0.822037 0 0 0.822037
right -0.730747 0 0 -0.730747
frontAndBack 0 0 0 0
sum 0.0912896 0 0 0.0912896

Time = 1988

DILUPBiCG:  Solving for Ux, Initial residual = 1.83943e-15, Final residual = 1.51145e-17, No Iterations 1
DILUPBiCG:  Solving for Uy, Initial residual = 2.66638e-15, Final residual = 1.05097e-18, No Iterations 2
DICPCG:  Solving for p_rgh, Initial residual = 7.55817e-15, Final residual = 3.99093e-17, No Iterations 5
time step continuity errors : sum local = 3.7783e-15, global = 6.61744e-17, cumulative = 2.21975e-15
DILUPBiCG:  Solving for epsilon, Initial residual = 2.43244e-16, Final residual = 1.59856e-19, No Iterations 2
DILUPBiCG:  Solving for k, Initial residual = 5.01084e-16, Final residual = 9.96224e-19, No Iterations 2
Before T+T solve
BiCG:  Solving for T+T, Initial residual = 4.50729e-15, Final residual = 4.4837e-16, No Iterations 4
Tres = 5.16046e-15
TsRes = 0.0912896
ExecutionTime = 3.96 s



Wall heat fluxes [W]
movingWall 0 0 0 0
left 0.730747 -9.71208e-16 0 0.730747
right -0.730747 6.53947e-15 0 -0.730747
bottom 0 0 0 0
frontAndBack 0 0 0 0
sum 1.22125e-15 5.56826e-15 0 6.78951e-15


Wall heat fluxes [W]
topAndBottom 0 0 0 0
left 0.822037 0 0 0.822037
right -0.730747 0 0 -0.730747
frontAndBack 0 0 0 0
sum 0.0912896 0 0 0.0912896

Time = 1989

DILUPBiCG:  Solving for Ux, Initial residual = 1.75076e-15, Final residual = 1.48596e-19, No Iterations 2
DILUPBiCG:  Solving for Uy, Initial residual = 2.48305e-15, Final residual = 3.96665e-19, No Iterations 2
DICPCG:  Solving for p_rgh, Initial residual = 7.48505e-15, Final residual = 5.88848e-17, No Iterations 5
time step continuity errors : sum local = 3.49189e-15, global = -3.70577e-17, cumulative = 2.1827e-15
DILUPBiCG:  Solving for epsilon, Initial residual = 2.18776e-16, Final residual = 5.40898e-19, No Iterations 2
DILUPBiCG:  Solving for k, Initial residual = 6.14131e-16, Final residual = 2.39298e-19, No Iterations 3
Before T+T solve
BiCG:  Solving for T+T, Initial residual = 4.5838e-15, Final residual = 4.12487e-16, No Iterations 3
Tres = -4.28943e-15
TsRes = 0.0912896
ExecutionTime = 3.96 s



Wall heat fluxes [W]
movingWall 0 0 0 0
left 0.730747 2.77488e-16 0 0.730747
right -0.730747 -3.74053e-15 0 -0.730747
bottom 0 0 0 0
frontAndBack 0 0 0 0
sum -7.77156e-16 -3.46304e-15 0 -4.24019e-15


Wall heat fluxes [W]
topAndBottom 0 0 0 0
left 0.822037 0 0 0.822037
right -0.730747 0 0 -0.730747
frontAndBack 0 0 0 0
sum 0.0912896 0 0 0.0912896

Time = 1990

DILUPBiCG:  Solving for Ux, Initial residual = 3.32006e-15, Final residual = 2.59746e-19, No Iterations 2
DILUPBiCG:  Solving for Uy, Initial residual = 3.03986e-15, Final residual = 7.17218e-19, No Iterations 2
DICPCG:  Solving for p_rgh, Initial residual = 1.05082e-14, Final residual = 4.52106e-17, No Iterations 5
time step continuity errors : sum local = 3.26372e-15, global = 1.79465e-16, cumulative = 2.36216e-15
DILUPBiCG:  Solving for epsilon, Initial residual = 2.54316e-16, Final residual = 2.45038e-19, No Iterations 2
DILUPBiCG:  Solving for k, Initial residual = 5.8711e-16, Final residual = 1.45026e-18, No Iterations 2
Before T+T solve
BiCG:  Solving for T+T, Initial residual = 5.15777e-15, Final residual = 3.34823e-16, No Iterations 2
Tres = 6.94711e-15
TsRes = 0.0912896
ExecutionTime = 3.96 s



Wall heat fluxes [W]
movingWall 0 0 0 0
left 0.730747 2.77488e-16 0 0.730747
right -0.730747 1.02688e-14 0 -0.730747
bottom 0 0 0 0
frontAndBack 0 0 0 0
sum -1.77636e-15 1.05463e-14 0 8.76996e-15


Wall heat fluxes [W]
topAndBottom 0 0 0 0
left 0.822037 0 0 0.822037
right -0.730747 0 0 -0.730747
frontAndBack 0 0 0 0
sum 0.0912896 0 0 0.0912896

Time = 1991

DILUPBiCG:  Solving for Ux, Initial residual = 2.21329e-15, Final residual = 1.4039e-18, No Iterations 2
DILUPBiCG:  Solving for Uy, Initial residual = 2.86929e-15, Final residual = 2.91756e-19, No Iterations 2
DICPCG:  Solving for p_rgh, Initial residual = 7.45634e-15, Final residual = 5.73128e-17, No Iterations 3
time step continuity errors : sum local = 3.11232e-15, global = 3.28755e-16, cumulative = 2.69092e-15
DILUPBiCG:  Solving for epsilon, Initial residual = 3.0127e-16, Final residual = 1.26127e-19, No Iterations 2
DILUPBiCG:  Solving for k, Initial residual = 5.99242e-16, Final residual = 9.38636e-19, No Iterations 2
Before T+T solve
BiCG:  Solving for T+T, Initial residual = 4.10415e-15, Final residual = 2.56343e-16, No Iterations 3
Tres = 1.24436e-14
TsRes = 0.0912896
ExecutionTime = 3.97 s



Wall heat fluxes [W]
movingWall 0 0 0 0
left 0.730747 4.99478e-15 0 0.730747
right -0.730747 7.93475e-15 0 -0.730747
bottom 0 0 0 0
frontAndBack 0 0 0 0
sum -2.22045e-16 1.29295e-14 0 1.27075e-14


Wall heat fluxes [W]
topAndBottom 0 0 0 0
left 0.822037 0 0 0.822037
right -0.730747 0 0 -0.730747
frontAndBack 0 0 0 0
sum 0.0912896 0 0 0.0912896

Time = 1992

DILUPBiCG:  Solving for Ux, Initial residual = 1.72898e-15, Final residual = 2.19873e-19, No Iterations 2
DILUPBiCG:  Solving for Uy, Initial residual = 2.86261e-15, Final residual = 2.31558e-17, No Iterations 1
DICPCG:  Solving for p_rgh, Initial residual = 8.34831e-15, Final residual = 2.53838e-17, No Iterations 10
time step continuity errors : sum local = 4.60574e-15, global = 4.23516e-18, cumulative = 2.69515e-15
DILUPBiCG:  Solving for epsilon, Initial residual = 2.70924e-16, Final residual = 2.43491e-19, No Iterations 2
DILUPBiCG:  Solving for k, Initial residual = 6.84349e-16, Final residual = 2.07849e-18, No Iterations 2
Before T+T solve
BiCG:  Solving for T+T, Initial residual = 4.25164e-15, Final residual = 3.12325e-16, No Iterations 4
Tres = -7.16947e-15
TsRes = 0.0912896
ExecutionTime = 3.97 s



Wall heat fluxes [W]
movingWall 0 0 0 0
left 0.730747 -9.71208e-16 0 0.730747
right -0.730747 9.38282e-16 0 -0.730747
bottom 0 0 0 0
frontAndBack 0 0 0 0
sum -5.55112e-15 -3.29261e-17 0 -5.58404e-15


Wall heat fluxes [W]
topAndBottom 0 0 0 0
left 0.822037 0 0 0.822037
right -0.730747 0 0 -0.730747
frontAndBack 0 0 0 0
sum 0.0912896 0 0 0.0912896

Time = 1993

DILUPBiCG:  Solving for Ux, Initial residual = 2.07175e-15, Final residual = 1.64464e-17, No Iterations 1
DILUPBiCG:  Solving for Uy, Initial residual = 2.61347e-15, Final residual = 5.67199e-19, No Iterations 2
DICPCG:  Solving for p_rgh, Initial residual = 7.06431e-15, Final residual = 4.20634e-17, No Iterations 10
time step continuity errors : sum local = 4.56127e-15, global = -2.9752e-16, cumulative = 2.39763e-15
DILUPBiCG:  Solving for epsilon, Initial residual = 2.19118e-16, Final residual = 3.64803e-19, No Iterations 2
DILUPBiCG:  Solving for k, Initial residual = 5.50531e-16, Final residual = 1.30491e-18, No Iterations 2
Before T+T solve
BiCG:  Solving for T+T, Initial residual = 4.65815e-15, Final residual = 3.59375e-16, No Iterations 2
Tres = -1.54517e-14
TsRes = 0.0912896
ExecutionTime = 3.97 s



Wall heat fluxes [W]
movingWall 0 0 0 0
left 0.730747 -1.26257e-14 0 0.730747
right -0.730747 3.7355e-15 0 -0.730747
bottom 0 0 0 0
frontAndBack 0 0 0 0
sum -4.996e-15 -8.8902e-15 0 -1.38862e-14


Wall heat fluxes [W]
topAndBottom 0 0 0 0
left 0.822037 0 0 0.822037
right -0.730747 0 0 -0.730747
frontAndBack 0 0 0 0
sum 0.0912896 0 0 0.0912896

Time = 1994

DILUPBiCG:  Solving for Ux, Initial residual = 3.86751e-15, Final residual = 2.61199e-17, No Iterations 1
DILUPBiCG:  Solving for Uy, Initial residual = 3.54892e-15, Final residual = 4.86342e-19, No Iterations 2
DICPCG:  Solving for p_rgh, Initial residual = 9.5762e-15, Final residual = 1.99968e-17, No Iterations 10
time step continuity errors : sum local = 3.47231e-15, global = 5.3469e-17, cumulative = 2.4511e-15
DILUPBiCG:  Solving for epsilon, Initial residual = 3.23414e-16, Final residual = 1.10181e-18, No Iterations 2
DILUPBiCG:  Solving for k, Initial residual = 6.47402e-16, Final residual = 4.83419e-18, No Iterations 2
Before T+T solve
BiCG:  Solving for T+T, Initial residual = 4.23228e-15, Final residual = 1.83446e-16, No Iterations 5
Tres = -1.45585e-14
TsRes = 0.0912896
ExecutionTime = 3.97 s



Wall heat fluxes [W]
movingWall 0 0 0 0
left 0.730747 4.57855e-15 0 0.730747
right -0.730747 -4.2029e-15 0 -0.730747
bottom 0 0 0 0
frontAndBack 0 0 0 0
sum -1.37668e-14 3.75651e-16 0 -1.33911e-14


Wall heat fluxes [W]
topAndBottom 0 0 0 0
left 0.822037 0 0 0.822037
right -0.730747 0 0 -0.730747
frontAndBack 0 0 0 0
sum 0.0912896 0 0 0.0912896

Time = 1995

DILUPBiCG:  Solving for Ux, Initial residual = 2.2727e-15, Final residual = 2.49616e-19, No Iterations 2
DILUPBiCG:  Solving for Uy, Initial residual = 3.06369e-15, Final residual = 4.47006e-19, No Iterations 2
DICPCG:  Solving for p_rgh, Initial residual = 7.4581e-15, Final residual = 4.72009e-17, No Iterations 4
time step continuity errors : sum local = 3.19173e-15, global = -9.68794e-17, cumulative = 2.35422e-15
DILUPBiCG:  Solving for epsilon, Initial residual = 2.64705e-16, Final residual = 1.85346e-18, No Iterations 2
DILUPBiCG:  Solving for k, Initial residual = 6.10823e-16, Final residual = 9.88411e-19, No Iterations 2
Before T+T solve
BiCG:  Solving for T+T, Initial residual = 5.22598e-15, Final residual = 4.41553e-16, No Iterations 4
Tres = -9.98657e-15
TsRes = 0.0912896
ExecutionTime = 3.97 s



Wall heat fluxes [W]
movingWall 0 0 0 0
left 0.730747 2.77488e-16 0 0.730747
right -0.730747 -3.73291e-15 0 -0.730747
bottom 0 0 0 0
frontAndBack 0 0 0 0
sum -9.10383e-15 -3.45542e-15 0 -1.25592e-14


Wall heat fluxes [W]
topAndBottom 0 0 0 0
left 0.822037 0 0 0.822037
right -0.730747 0 0 -0.730747
frontAndBack 0 0 0 0
sum 0.0912896 0 0 0.0912896

Time = 1996

DILUPBiCG:  Solving for Ux, Initial residual = 4.92802e-15, Final residual = 3.84887e-17, No Iterations 1
DILUPBiCG:  Solving for Uy, Initial residual = 2.49064e-15, Final residual = 5.30852e-19, No Iterations 2
DICPCG:  Solving for p_rgh, Initial residual = 7.33981e-15, Final residual = 5.85207e-17, No Iterations 5
time step continuity errors : sum local = 3.10808e-15, global = 1.59348e-16, cumulative = 2.51357e-15
DILUPBiCG:  Solving for epsilon, Initial residual = 2.64705e-16, Final residual = 1.14519e-18, No Iterations 2
DILUPBiCG:  Solving for k, Initial residual = 5.9961e-16, Final residual = 1.26204e-18, No Iterations 2
Before T+T solve
BiCG:  Solving for T+T, Initial residual = 4.76263e-15, Final residual = 2.55929e-16, No Iterations 3
Tres = -3.051e-16
TsRes = 0.0912896
ExecutionTime = 3.98 s



Wall heat fluxes [W]
movingWall 0 0 0 0
left 0.730747 2.77488e-16 0 0.730747
right -0.730747 9.33947e-15 0 -0.730747
bottom 0 0 0 0
frontAndBack 0 0 0 0
sum -8.77076e-15 9.61696e-15 0 8.46197e-16


Wall heat fluxes [W]
topAndBottom 0 0 0 0
left 0.822037 0 0 0.822037
right -0.730747 0 0 -0.730747
frontAndBack 0 0 0 0
sum 0.0912896 0 0 0.0912896

Time = 1997

DILUPBiCG:  Solving for Ux, Initial residual = 3.5203e-15, Final residual = 2.4691e-17, No Iterations 1
DILUPBiCG:  Solving for Uy, Initial residual = 3.11131e-15, Final residual = 2.53834e-19, No Iterations 2
DICPCG:  Solving for p_rgh, Initial residual = 8.84658e-15, Final residual = 4.40333e-17, No Iterations 10
time step continuity errors : sum local = 4.00488e-15, global = 8.94679e-17, cumulative = 2.60304e-15
DILUPBiCG:  Solving for epsilon, Initial residual = 3.25806e-16, Final residual = 1.33045e-18, No Iterations 2
DILUPBiCG:  Solving for k, Initial residual = 6.6946e-16, Final residual = 1.06882e-18, No Iterations 2
Before T+T solve
BiCG:  Solving for T+T, Initial residual = 5.03548e-15, Final residual = 3.66784e-16, No Iterations 3
Tres = -3.49584e-15
TsRes = 0.0912896
ExecutionTime = 3.98 s



Wall heat fluxes [W]
movingWall 0 0 0 0
left 0.730747 1.80367e-15 0 0.730747
right -0.730747 4.20052e-15 0 -0.730747
bottom 0 0 0 0
frontAndBack 0 0 0 0
sum -9.54792e-15 6.00419e-15 0 -3.54373e-15


Wall heat fluxes [W]
topAndBottom 0 0 0 0
left 0.822037 0 0 0.822037
right -0.730747 0 0 -0.730747
frontAndBack 0 0 0 0
sum 0.0912896 0 0 0.0912896

Time = 1998

DILUPBiCG:  Solving for Ux, Initial residual = 2.42664e-15, Final residual = 2.0913e-17, No Iterations 1
DILUPBiCG:  Solving for Uy, Initial residual = 2.78049e-15, Final residual = 3.2607e-19, No Iterations 2
DICPCG:  Solving for p_rgh, Initial residual = 8.37193e-15, Final residual = 2.97096e-17, No Iterations 10
time step continuity errors : sum local = 4.38975e-15, global = 1.72583e-16, cumulative = 2.77562e-15
DILUPBiCG:  Solving for epsilon, Initial residual = 2.56093e-16, Final residual = 1.29733e-18, No Iterations 2
DILUPBiCG:  Solving for k, Initial residual = 5.86191e-16, Final residual = 2.3722e-18, No Iterations 2
Before T+T solve
BiCG:  Solving for T+T, Initial residual = 4.58902e-15, Final residual = 3.30738e-16, No Iterations 3
Tres = 2.36633e-15
TsRes = 0.0912896
ExecutionTime = 3.98 s



Wall heat fluxes [W]
movingWall 0 0 0 0
left 0.730747 -3.32986e-15 0 0.730747
right -0.730747 1.63402e-14 0 -0.730747
bottom 0 0 0 0
frontAndBack 0 0 0 0
sum -7.88258e-15 1.30103e-14 0 5.12775e-15


Wall heat fluxes [W]
topAndBottom 0 0 0 0
left 0.822037 0 0 0.822037
right -0.730747 0 0 -0.730747
frontAndBack 0 0 0 0
sum 0.0912896 0 0 0.0912896

Time = 1999

DILUPBiCG:  Solving for Ux, Initial residual = 2.38017e-15, Final residual = 1.38329e-17, No Iterations 1
DILUPBiCG:  Solving for Uy, Initial residual = 2.3601e-15, Final residual = 2.88641e-19, No Iterations 2
DICPCG:  Solving for p_rgh, Initial residual = 7.70714e-15, Final residual = 4.21364e-17, No Iterations 9
time step continuity errors : sum local = 4.53427e-15, global = -4.18223e-17, cumulative = 2.7338e-15
DILUPBiCG:  Solving for epsilon, Initial residual = 1.50157e-16, Final residual = 2.10603e-19, No Iterations 2
DILUPBiCG:  Solving for k, Initial residual = 4.89871e-16, Final residual = 1.57175e-18, No Iterations 2
Before T+T solve
BiCG:  Solving for T+T, Initial residual = 5.01827e-15, Final residual = 3.06094e-16, No Iterations 3
Tres = -1.12848e-14
TsRes = 0.0912896
ExecutionTime = 3.98 s



Wall heat fluxes [W]
movingWall 0 0 0 0
left 0.730747 1.66493e-15 0 0.730747
right -0.730747 -3.26494e-15 0 -0.730747
bottom 0 0 0 0
frontAndBack 0 0 0 0
sum -9.32587e-15 -1.60001e-15 0 -1.09259e-14


Wall heat fluxes [W]
topAndBottom 0 0 0 0
left 0.822037 0 0 0.822037
right -0.730747 0 0 -0.730747
frontAndBack 0 0 0 0
sum 0.0912896 0 0 0.0912896

Time = 2000

DILUPBiCG:  Solving for Ux, Initial residual = 1.72734e-15, Final residual = 3.29848e-18, No Iterations 2
DILUPBiCG:  Solving for Uy, Initial residual = 2.02405e-15, Final residual = 8.14349e-19, No Iterations 2
DICPCG:  Solving for p_rgh, Initial residual = 5.45325e-15, Final residual = 3.55358e-17, No Iterations 5
time step continuity errors : sum local = 3.73542e-15, global = 4.02341e-17, cumulative = 2.77403e-15
DILUPBiCG:  Solving for epsilon, Initial residual = 2.75093e-16, Final residual = 4.71502e-19, No Iterations 2
DILUPBiCG:  Solving for k, Initial residual = 5.97588e-16, Final residual = 1.47048e-18, No Iterations 2
Before T+T solve
BiCG:  Solving for T+T, Initial residual = 4.25871e-15, Final residual = 2.82454e-16, No Iterations 5
Tres = -5.38861e-15
TsRes = 0.0912896
ExecutionTime = 3.99 s



Wall heat fluxes [W]
movingWall 0 0 0 0
left 0.730747 4.30106e-15 0 0.730747
right -0.730747 -5.13616e-15 0 -0.730747
bottom 0 0 0 0
frontAndBack 0 0 0 0
sum -3.21965e-15 -8.35097e-16 0 -4.05474e-15


Wall heat fluxes [W]
topAndBottom 0 0 0 0
left 0.822037 0 0 0.822037
right -0.730747 0 0 -0.730747
frontAndBack 0 0 0 0
sum 0.0912896 0 0 0.0912896

End

