/*---------------------------------------------------------------------------*\
| =========                 |                                                 |
| \\      /  F ield         | OpenFOAM Extend Project: Open source CFD        |
|  \\    /   O peration     | Version:  1.6-ext                               |
|   \\  /    A nd           | Web:      www.extend-project.de                 |
|    \\/     M anipulation  |                                                 |
\*---------------------------------------------------------------------------*/
Build  : 1.6-ext-8673d8aecf4d
Exec   : chipAirCoolingSimpleFoam
Date   : Nov 01 2011
Time   : 21:09:44
Host   : diokletian
PID    : 17618
Case   : /home/henrus/projects/ChipAirCooling/run/tutorial1_noRadiation/conjugateContactCavity
nProcs : 1
SigFpe : Enabling floating point exception trapping (FOAM_SIGFPE).

// * * * * * * * * * * * * * * * * * * * * * * * * * * * * * * * * * * * * * //
Create time

Create mesh for time = 0


    From function void polyMesh::initMesh()
    in file meshes/polyMesh/polyMeshInitMesh.C at line 82
    Truncating neighbour list at 180 for backward compatibility

Reading g
Reading transportProperties

Calculating field g.h

Reading field p_rgh

Reading field U

Reading field T

Reading/calculating face flux field phi

Selecting incompressible transport model Newtonian
Selecting RAS turbulence model kEpsilon
kEpsilonCoeffs
{
    Cmu             0.09;
    C1              1.44;
    C2              1.92;
    alphaEps        0.76923;
    sigmaEps        1.3;
}

Reading field kappaEff

Creating radiation model

Selecting radiationModel none
Reading field Tsolid

Reading solid thermal properties
Selecting thermal model multiMaterialZones
Selecting thermal model constant
Selecting thermal model constant
Selecting thermal gap model constant
Reading solid diffusivity k


Starting time loop

--> FOAM Warning : 
    From function dlLibraryTable::open(const dictionary& dict, const word& libsEntry, const TablePtr tablePtr)
    in file lnInclude/dlLibraryTableTemplates.C at line 68
    library "libairbusMaterialModels.so" did not introduce any new entries

Time = 1

DILUPBiCG:  Solving for Ux, Initial residual = 1, Final residual = 9.72759e-05, No Iterations 2
DILUPBiCG:  Solving for Uy, Initial residual = 1, Final residual = 0.000174731, No Iterations 2
DICPCG:  Solving for p_rgh, Initial residual = 1, Final residual = 0.00985949, No Iterations 5
time step continuity errors : sum local = 0.00481111, global = 2.0845e-18, cumulative = 2.0845e-18
DILUPBiCG:  Solving for epsilon, Initial residual = 0.0778063, Final residual = 0.000142604, No Iterations 2
DILUPBiCG:  Solving for k, Initial residual = 1, Final residual = 0.00249972, No Iterations 2
BiCG:  Solving for T+T, Initial residual = 0.309115, Final residual = 0.0281784, No Iterations 3
ExecutionTime = 0.02 s



Wall heat fluxes [W]
movingWall 0 0 0 0
left 2.97628e-08 0 0 2.97628e-08
right -0.546176 0 0 -0.546176
bottom 0 0 0 0
frontAndBack 0 0 0 0
sum -0.546176 0 0 -0.546176


Wall heat fluxes [W]
topAndBottom 0 0 0 0
left -1.17422 0 0 -1.17422
right -18.4196 0 0 -18.4196
frontAndBack 0 0 0 0
sum -19.5938 0 0 -19.5938

Time = 2

DILUPBiCG:  Solving for Ux, Initial residual = 0.887587, Final residual = 9.21879e-05, No Iterations 2
DILUPBiCG:  Solving for Uy, Initial residual = 0.822331, Final residual = 0.00721291, No Iterations 1
DICPCG:  Solving for p_rgh, Initial residual = 0.888211, Final residual = 0.00652039, No Iterations 6
time step continuity errors : sum local = 0.0218576, global = -4.47207e-16, cumulative = -4.45122e-16
DILUPBiCG:  Solving for epsilon, Initial residual = 0.0241196, Final residual = 3.05107e-05, No Iterations 2
DILUPBiCG:  Solving for k, Initial residual = 0.650651, Final residual = 0.000809957, No Iterations 2
BiCG:  Solving for T+T, Initial residual = 0.0312561, Final residual = 0.00162456, No Iterations 5
ExecutionTime = 0.02 s



Wall heat fluxes [W]
movingWall 0 0 0 0
left 9.77011e-08 6.61583e-23 0 9.77011e-08
right -0.503381 -2.04074e-14 0 -0.503381
bottom 0 0 0 0
frontAndBack 0 0 0 0
sum -0.503381 -2.04074e-14 0 -0.503381


Wall heat fluxes [W]
topAndBottom 0 0 0 0
left 41.3256 0 0 41.3256
right -7.09639 0 0 -7.09639
frontAndBack 0 0 0 0
sum 34.2293 0 0 34.2293

Time = 3

DILUPBiCG:  Solving for Ux, Initial residual = 0.339241, Final residual = 2.39443e-05, No Iterations 2
DILUPBiCG:  Solving for Uy, Initial residual = 0.274702, Final residual = 0.00230128, No Iterations 1
DICPCG:  Solving for p_rgh, Initial residual = 0.399281, Final residual = 0.00281946, No Iterations 5
time step continuity errors : sum local = 0.00811671, global = 7.49095e-17, cumulative = -3.70213e-16
DILUPBiCG:  Solving for epsilon, Initial residual = 0.0773977, Final residual = 4.40501e-05, No Iterations 2
DILUPBiCG:  Solving for k, Initial residual = 0.221414, Final residual = 0.000275537, No Iterations 2
BiCG:  Solving for T+T, Initial residual = 0.00846512, Final residual = 0.000686395, No Iterations 5
ExecutionTime = 0.02 s



Wall heat fluxes [W]
movingWall 0 0 0 0
left 8.66924e-07 -5.29266e-22 0 8.66924e-07
right -0.588437 3.18917e-15 0 -0.588437
bottom 0 0 0 0
frontAndBack 0 0 0 0
sum -0.588436 3.18917e-15 0 -0.588436


Wall heat fluxes [W]
topAndBottom 0 0 0 0
left 29.179 0 0 29.179
right -4.6064 0 0 -4.6064
frontAndBack 0 0 0 0
sum 24.5726 0 0 24.5726

Time = 4

DILUPBiCG:  Solving for Ux, Initial residual = 0.219852, Final residual = 2.15503e-05, No Iterations 2
DILUPBiCG:  Solving for Uy, Initial residual = 0.248084, Final residual = 0.0023607, No Iterations 1
DICPCG:  Solving for p_rgh, Initial residual = 0.173826, Final residual = 0.00162429, No Iterations 9
time step continuity errors : sum local = 0.00386195, global = -2.95204e-16, cumulative = -6.65417e-16
DILUPBiCG:  Solving for epsilon, Initial residual = 0.11771, Final residual = 9.70201e-05, No Iterations 2
DILUPBiCG:  Solving for k, Initial residual = 0.130117, Final residual = 0.000166955, No Iterations 2
BiCG:  Solving for T+T, Initial residual = 0.00534194, Final residual = 0.000159682, No Iterations 5
ExecutionTime = 0.02 s



Wall heat fluxes [W]
movingWall 0 0 0 0
left 3.27262e-06 9.26216e-21 0 3.27262e-06
right -0.646851 -1.48547e-14 0 -0.646851
bottom 0 0 0 0
frontAndBack 0 0 0 0
sum -0.646848 -1.48547e-14 0 -0.646848


Wall heat fluxes [W]
topAndBottom 0 0 0 0
left 24.678 0 0 24.678
right -3.52291 0 0 -3.52291
frontAndBack 0 0 0 0
sum 21.1551 0 0 21.1551

Time = 5

DILUPBiCG:  Solving for Ux, Initial residual = 0.149285, Final residual = 0.00138302, No Iterations 1
DILUPBiCG:  Solving for Uy, Initial residual = 0.171282, Final residual = 0.00140832, No Iterations 1
DICPCG:  Solving for p_rgh, Initial residual = 0.128144, Final residual = 0.00122028, No Iterations 10
time step continuity errors : sum local = 0.00258136, global = 3.4993e-16, cumulative = -3.15487e-16
DILUPBiCG:  Solving for epsilon, Initial residual = 0.13838, Final residual = 0.000125784, No Iterations 2
DILUPBiCG:  Solving for k, Initial residual = 0.0971545, Final residual = 0.000176749, No Iterations 2
BiCG:  Solving for T+T, Initial residual = 0.00402699, Final residual = 0.000371081, No Iterations 3
ExecutionTime = 0.02 s



Wall heat fluxes [W]
movingWall 0 0 0 0
left 1.02222e-05 -2.54048e-20 0 1.02222e-05
right -0.6981 1.69861e-14 0 -0.6981
bottom 0 0 0 0
frontAndBack 0 0 0 0
sum -0.698089 1.6986e-14 0 -0.698089


Wall heat fluxes [W]
topAndBottom 0 0 0 0
left 18.5495 0 0 18.5495
right -2.84186 0 0 -2.84186
frontAndBack 0 0 0 0
sum 15.7077 0 0 15.7077

Time = 6

DILUPBiCG:  Solving for Ux, Initial residual = 0.123527, Final residual = 0.00102936, No Iterations 1
DILUPBiCG:  Solving for Uy, Initial residual = 0.100081, Final residual = 0.000755645, No Iterations 1
DICPCG:  Solving for p_rgh, Initial residual = 0.113349, Final residual = 0.000562184, No Iterations 11
time step continuity errors : sum local = 0.00125671, global = 1.79233e-16, cumulative = -1.36253e-16
DILUPBiCG:  Solving for epsilon, Initial residual = 0.134009, Final residual = 0.000132819, No Iterations 2
DILUPBiCG:  Solving for k, Initial residual = 0.0802755, Final residual = 0.00015841, No Iterations 2
BiCG:  Solving for T+T, Initial residual = 0.00328832, Final residual = 0.000212002, No Iterations 3
ExecutionTime = 0.02 s



Wall heat fluxes [W]
movingWall 0 0 0 0
left 2.63074e-05 -8.25655e-20 0 2.63074e-05
right -0.735671 1.04089e-14 0 -0.735671
bottom 0 0 0 0
frontAndBack 0 0 0 0
sum -0.735645 1.04089e-14 0 -0.735645


Wall heat fluxes [W]
topAndBottom 0 0 0 0
left 14.9103 0 0 14.9103
right -2.42754 0 0 -2.42754
frontAndBack 0 0 0 0
sum 12.4828 0 0 12.4828

Time = 7

DILUPBiCG:  Solving for Ux, Initial residual = 0.0923499, Final residual = 0.000784418, No Iterations 1
DILUPBiCG:  Solving for Uy, Initial residual = 0.0795762, Final residual = 0.000594723, No Iterations 1
DICPCG:  Solving for p_rgh, Initial residual = 0.0912526, Final residual = 0.000490147, No Iterations 11
time step continuity errors : sum local = 0.00106479, global = 3.232e-16, cumulative = 1.86947e-16
DILUPBiCG:  Solving for epsilon, Initial residual = 0.110446, Final residual = 0.000130134, No Iterations 2
DILUPBiCG:  Solving for k, Initial residual = 0.0705939, Final residual = 0.000102998, No Iterations 2
BiCG:  Solving for T+T, Initial residual = 0.00285154, Final residual = 0.000182754, No Iterations 3
ExecutionTime = 0.03 s



Wall heat fluxes [W]
movingWall 0 0 0 0
left 5.69311e-05 3.64135e-19 0 5.69311e-05
right -0.765664 1.67442e-14 0 -0.765664
bottom 0 0 0 0
frontAndBack 0 0 0 0
sum -0.765607 1.67445e-14 0 -0.765607


Wall heat fluxes [W]
topAndBottom 0 0 0 0
left 11.2296 0 0 11.2296
right -2.0472 0 0 -2.0472
frontAndBack 0 0 0 0
sum 9.18236 0 0 9.18236

Time = 8

DILUPBiCG:  Solving for Ux, Initial residual = 0.0724412, Final residual = 0.000646801, No Iterations 1
DILUPBiCG:  Solving for Uy, Initial residual = 0.070377, Final residual = 0.000522259, No Iterations 1
DICPCG:  Solving for p_rgh, Initial residual = 0.0840352, Final residual = 0.000793584, No Iterations 10
time step continuity errors : sum local = 0.00160629, global = -1.29967e-16, cumulative = 5.69803e-17
DILUPBiCG:  Solving for epsilon, Initial residual = 0.086113, Final residual = 2.71354e-06, No Iterations 3
DILUPBiCG:  Solving for k, Initial residual = 0.0651737, Final residual = 0.000110939, No Iterations 2
BiCG:  Solving for T+T, Initial residual = 0.00246673, Final residual = 0.000156509, No Iterations 3
ExecutionTime = 0.03 s



Wall heat fluxes [W]
movingWall 0 0 0 0
left 0.00011234 -2.79453e-19 0 0.00011234
right -0.787142 -6.24319e-15 0 -0.787142
bottom 0 0 0 0
frontAndBack 0 0 0 0
sum -0.78703 -6.24347e-15 0 -0.78703


Wall heat fluxes [W]
topAndBottom 0 0 0 0
left 9.19042 0 0 9.19042
right -1.79744 0 0 -1.79744
frontAndBack 0 0 0 0
sum 7.39298 0 0 7.39298

Time = 9

DILUPBiCG:  Solving for Ux, Initial residual = 0.0569553, Final residual = 0.000527093, No Iterations 1
DILUPBiCG:  Solving for Uy, Initial residual = 0.0644234, Final residual = 0.000480275, No Iterations 1
DICPCG:  Solving for p_rgh, Initial residual = 0.0858785, Final residual = 0.000690146, No Iterations 10
time step continuity errors : sum local = 0.00139082, global = -1.30761e-16, cumulative = -7.37804e-17
DILUPBiCG:  Solving for epsilon, Initial residual = 0.068105, Final residual = 7.77395e-05, No Iterations 2
DILUPBiCG:  Solving for k, Initial residual = 0.0611124, Final residual = 0.000104276, No Iterations 2
BiCG:  Solving for T+T, Initial residual = 0.00221474, Final residual = 0.000125504, No Iterations 3
ExecutionTime = 0.03 s



Wall heat fluxes [W]
movingWall 0 0 0 0
left 0.000204152 -8.12953e-19 0 0.000204152
right -0.804532 -7.19899e-15 0 -0.804532
bottom 0 0 0 0
frontAndBack 0 0 0 0
sum -0.804328 -7.1998e-15 0 -0.804328


Wall heat fluxes [W]
topAndBottom 0 0 0 0
left 7.01677 0 0 7.01677
right -1.57703 0 0 -1.57703
frontAndBack 0 0 0 0
sum 5.43974 0 0 5.43974

Time = 10

DILUPBiCG:  Solving for Ux, Initial residual = 0.0488453, Final residual = 0.000455692, No Iterations 1
DILUPBiCG:  Solving for Uy, Initial residual = 0.0600023, Final residual = 0.000437833, No Iterations 1
DICPCG:  Solving for p_rgh, Initial residual = 0.0841462, Final residual = 0.000650249, No Iterations 10
time step continuity errors : sum local = 0.00132602, global = -3.24255e-17, cumulative = -1.06206e-16
DILUPBiCG:  Solving for epsilon, Initial residual = 0.0549366, Final residual = 5.48011e-05, No Iterations 2
DILUPBiCG:  Solving for k, Initial residual = 0.0578892, Final residual = 9.17268e-05, No Iterations 2
BiCG:  Solving for T+T, Initial residual = 0.00199758, Final residual = 0.000120251, No Iterations 3
ExecutionTime = 0.03 s



Wall heat fluxes [W]
movingWall 0 0 0 0
left 0.000352393 -3.3873e-20 0 0.000352393
right -0.817023 -9.05872e-16 0 -0.817023
bottom 0 0 0 0
frontAndBack 0 0 0 0
sum -0.816671 -9.05906e-16 0 -0.816671


Wall heat fluxes [W]
topAndBottom 0 0 0 0
left 5.86888 0 0 5.86888
right -1.42582 0 0 -1.42582
frontAndBack 0 0 0 0
sum 4.44305 0 0 4.44305

Time = 11

DILUPBiCG:  Solving for Ux, Initial residual = 0.0432772, Final residual = 0.000416175, No Iterations 1
DILUPBiCG:  Solving for Uy, Initial residual = 0.0561225, Final residual = 0.000404306, No Iterations 1
DICPCG:  Solving for p_rgh, Initial residual = 0.0814188, Final residual = 0.000624982, No Iterations 10
time step continuity errors : sum local = 0.00129624, global = -1.82244e-16, cumulative = -2.8845e-16
DILUPBiCG:  Solving for epsilon, Initial residual = 0.04478, Final residual = 5.1854e-05, No Iterations 2
DILUPBiCG:  Solving for k, Initial residual = 0.0548983, Final residual = 7.74061e-05, No Iterations 2
BiCG:  Solving for T+T, Initial residual = 0.00185161, Final residual = 9.4872e-05, No Iterations 3
ExecutionTime = 0.03 s



Wall heat fluxes [W]
movingWall 0 0 0 0
left 0.000580014 -5.41969e-18 0 0.000580014
right -0.827412 -9.11395e-15 0 -0.827412
bottom 0 0 0 0
frontAndBack 0 0 0 0
sum -0.826832 -9.11937e-15 0 -0.826832


Wall heat fluxes [W]
topAndBottom 0 0 0 0
left 4.54322 0 0 4.54322
right -1.29519 0 0 -1.29519
frontAndBack 0 0 0 0
sum 3.24803 0 0 3.24803

Time = 12

DILUPBiCG:  Solving for Ux, Initial residual = 0.0401258, Final residual = 0.000393599, No Iterations 1
DILUPBiCG:  Solving for Uy, Initial residual = 0.0519854, Final residual = 0.00037052, No Iterations 1
DICPCG:  Solving for p_rgh, Initial residual = 0.0758146, Final residual = 0.000559772, No Iterations 10
time step continuity errors : sum local = 0.00118002, global = -6.50826e-17, cumulative = -3.53533e-16
DILUPBiCG:  Solving for epsilon, Initial residual = 0.0372598, Final residual = 4.67364e-05, No Iterations 2
DILUPBiCG:  Solving for k, Initial residual = 0.0524514, Final residual = 6.99827e-05, No Iterations 2
BiCG:  Solving for T+T, Initial residual = 0.0017322, Final residual = 9.4203e-05, No Iterations 3
ExecutionTime = 0.04 s



Wall heat fluxes [W]
movingWall 0 0 0 0
left 0.000922504 5.41969e-18 0 0.000922504
right -0.834979 -3.66031e-15 0 -0.834979
bottom 0 0 0 0
frontAndBack 0 0 0 0
sum -0.834056 -3.65489e-15 0 -0.834056


Wall heat fluxes [W]
topAndBottom 0 0 0 0
left 3.89553 0 0 3.89553
right -1.20381 0 0 -1.20381
frontAndBack 0 0 0 0
sum 2.69172 0 0 2.69172

Time = 13

DILUPBiCG:  Solving for Ux, Initial residual = 0.0370274, Final residual = 2.70021e-06, No Iterations 2
DILUPBiCG:  Solving for Uy, Initial residual = 0.0486638, Final residual = 0.000336794, No Iterations 1
DICPCG:  Solving for p_rgh, Initial residual = 0.0702037, Final residual = 0.000507374, No Iterations 10
time step continuity errors : sum local = 0.00109862, global = 1.51937e-16, cumulative = -2.01596e-16
DILUPBiCG:  Solving for epsilon, Initial residual = 0.0317808, Final residual = 3.96183e-05, No Iterations 2
DILUPBiCG:  Solving for k, Initial residual = 0.0505771, Final residual = 6.56787e-05, No Iterations 2
BiCG:  Solving for T+T, Initial residual = 0.00164601, Final residual = 7.552e-05, No Iterations 3
ExecutionTime = 0.04 s



Wall heat fluxes [W]
movingWall 0 0 0 0
left 0.0014199 -1.48364e-17 0 0.0014199
right -0.841527 8.26272e-15 0 -0.841527
bottom 0 0 0 0
frontAndBack 0 0 0 0
sum -0.840108 8.24788e-15 0 -0.840108


Wall heat fluxes [W]
topAndBottom 0 0 0 0
left 3.06854 0 0 3.06854
right -1.12524 0 0 -1.12524
frontAndBack 0 0 0 0
sum 1.9433 0 0 1.9433

Time = 14

DILUPBiCG:  Solving for Ux, Initial residual = 0.0343975, Final residual = 2.89692e-06, No Iterations 2
DILUPBiCG:  Solving for Uy, Initial residual = 0.0455358, Final residual = 0.000309641, No Iterations 1
DICPCG:  Solving for p_rgh, Initial residual = 0.0634791, Final residual = 0.000467813, No Iterations 10
time step continuity errors : sum local = 0.00103671, global = -3.40137e-17, cumulative = -2.3561e-16
DILUPBiCG:  Solving for epsilon, Initial residual = 0.0281765, Final residual = 3.36613e-05, No Iterations 2
DILUPBiCG:  Solving for k, Initial residual = 0.0495358, Final residual = 6.52706e-05, No Iterations 2
BiCG:  Solving for T+T, Initial residual = 0.00158112, Final residual = 7.51688e-05, No Iterations 3
ExecutionTime = 0.04 s



Wall heat fluxes [W]
movingWall 0 0 0 0
left 0.00213321 -3.79378e-18 0 0.00213321
right -0.846362 -1.84328e-15 0 -0.846362
bottom 0 0 0 0
frontAndBack 0 0 0 0
sum -0.844229 -1.84707e-15 0 -0.844229


Wall heat fluxes [W]
topAndBottom 0 0 0 0
left 2.70612 0 0 2.70612
right -1.07027 0 0 -1.07027
frontAndBack 0 0 0 0
sum 1.63585 0 0 1.63585

Time = 15

DILUPBiCG:  Solving for Ux, Initial residual = 0.0320666, Final residual = 3.25306e-06, No Iterations 2
DILUPBiCG:  Solving for Uy, Initial residual = 0.0432779, Final residual = 0.000287768, No Iterations 1
DICPCG:  Solving for p_rgh, Initial residual = 0.0580128, Final residual = 0.000437379, No Iterations 10
time step continuity errors : sum local = 0.000980396, global = -6.15422e-18, cumulative = -2.41764e-16
DILUPBiCG:  Solving for epsilon, Initial residual = 0.0262842, Final residual = 2.84074e-05, No Iterations 2
DILUPBiCG:  Solving for k, Initial residual = 0.04927, Final residual = 6.55987e-05, No Iterations 2
BiCG:  Solving for T+T, Initial residual = 0.0015359, Final residual = 6.25103e-05, No Iterations 3
ExecutionTime = 0.04 s



Wall heat fluxes [W]
movingWall 0 0 0 0
left 0.00313279 -2.30337e-18 0 0.00313279
right -0.850705 -7.03216e-19 0 -0.850705
bottom 0 0 0 0
frontAndBack 0 0 0 0
sum -0.847572 -3.00658e-18 0 -0.847572


Wall heat fluxes [W]
topAndBottom 0 0 0 0
left 2.18175 0 0 2.18175
right -1.02265 0 0 -1.02265
frontAndBack 0 0 0 0
sum 1.1591 0 0 1.1591

Time = 16

DILUPBiCG:  Solving for Ux, Initial residual = 0.0305693, Final residual = 3.24895e-06, No Iterations 2
DILUPBiCG:  Solving for Uy, Initial residual = 0.0413799, Final residual = 0.000271044, No Iterations 1
DICPCG:  Solving for p_rgh, Initial residual = 0.0547641, Final residual = 0.000522964, No Iterations 9
time step continuity errors : sum local = 0.00128239, global = -9.89639e-17, cumulative = -3.40728e-16
DILUPBiCG:  Solving for epsilon, Initial residual = 0.0249117, Final residual = 2.34231e-05, No Iterations 2
DILUPBiCG:  Solving for k, Initial residual = 0.0494353, Final residual = 6.83097e-05, No Iterations 2
BiCG:  Solving for T+T, Initial residual = 0.00150802, Final residual = 6.17203e-05, No Iterations 3
ExecutionTime = 0.04 s



Wall heat fluxes [W]
movingWall 0 0 0 0
left 0.00450487 -3.36021e-17 0 0.00450487
right -0.853962 -4.62053e-15 0 -0.853962
bottom 0 0 0 0
frontAndBack 0 0 0 0
sum -0.849457 -4.65413e-15 0 -0.849457


Wall heat fluxes [W]
topAndBottom 0 0 0 0
left 1.98259 0 0 1.98259
right -0.989844 0 0 -0.989844
frontAndBack 0 0 0 0
sum 0.992744 0 0 0.992744

Time = 17

DILUPBiCG:  Solving for Ux, Initial residual = 0.0290598, Final residual = 3.3938e-06, No Iterations 2
DILUPBiCG:  Solving for Uy, Initial residual = 0.0393304, Final residual = 0.000264001, No Iterations 1
DICPCG:  Solving for p_rgh, Initial residual = 0.0519754, Final residual = 0.000365002, No Iterations 9
time step continuity errors : sum local = 0.000882648, global = -1.7695e-16, cumulative = -5.17679e-16
DILUPBiCG:  Solving for epsilon, Initial residual = 0.0239209, Final residual = 2.03911e-05, No Iterations 2
DILUPBiCG:  Solving for k, Initial residual = 0.0497777, Final residual = 7.22349e-05, No Iterations 2
BiCG:  Solving for T+T, Initial residual = 0.00149759, Final residual = 5.39778e-05, No Iterations 3
ExecutionTime = 0.05 s



Wall heat fluxes [W]
movingWall 0 0 0 0
left 0.00635514 1.32782e-17 0 0.00635514
right -0.856993 -9.24911e-15 0 -0.856993
bottom 0 0 0 0
frontAndBack 0 0 0 0
sum -0.850638 -9.23583e-15 0 -0.850638


Wall heat fluxes [W]
topAndBottom 0 0 0 0
left 1.64589 0 0 1.64589
right -0.960934 0 0 -0.960934
frontAndBack 0 0 0 0
sum 0.68496 0 0 0.68496

Time = 18

DILUPBiCG:  Solving for Ux, Initial residual = 0.0275106, Final residual = 3.16128e-06, No Iterations 2
DILUPBiCG:  Solving for Uy, Initial residual = 0.0374545, Final residual = 0.000262379, No Iterations 1
DICPCG:  Solving for p_rgh, Initial residual = 0.048265, Final residual = 0.000375035, No Iterations 9
time step continuity errors : sum local = 0.000950651, global = -5.08848e-16, cumulative = -1.02653e-15
DILUPBiCG:  Solving for epsilon, Initial residual = 0.0235156, Final residual = 1.94001e-05, No Iterations 2
DILUPBiCG:  Solving for k, Initial residual = 0.0503802, Final residual = 7.55196e-05, No Iterations 2
BiCG:  Solving for T+T, Initial residual = 0.00149, Final residual = 0.000144543, No Iterations 2
ExecutionTime = 0.05 s



Wall heat fluxes [W]
movingWall 0 0 0 0
left 0.00899216 -4.63383e-17 0 0.00899216
right -0.859353 -2.68333e-14 0 -0.859353
bottom 0 0 0 0
frontAndBack 0 0 0 0
sum -0.850361 -2.68796e-14 0 -0.850361


Wall heat fluxes [W]
topAndBottom 0 0 0 0
left 1.08191 0 0 1.08191
right -0.955255 0 0 -0.955255
frontAndBack 0 0 0 0
sum 0.126658 0 0 0.126658

Time = 19

DILUPBiCG:  Solving for Ux, Initial residual = 0.0260206, Final residual = 3.07605e-06, No Iterations 2
DILUPBiCG:  Solving for Uy, Initial residual = 0.0368714, Final residual = 0.000260965, No Iterations 1
DICPCG:  Solving for p_rgh, Initial residual = 0.0450234, Final residual = 0.000277969, No Iterations 10
time step continuity errors : sum local = 0.000733611, global = -3.73836e-16, cumulative = -1.40036e-15
DILUPBiCG:  Solving for epsilon, Initial residual = 0.0235382, Final residual = 2.05149e-05, No Iterations 2
DILUPBiCG:  Solving for k, Initial residual = 0.0512306, Final residual = 8.09018e-05, No Iterations 2
BiCG:  Solving for T+T, Initial residual = 0.00152254, Final residual = 5.40619e-05, No Iterations 3
ExecutionTime = 0.05 s



Wall heat fluxes [W]
movingWall 0 0 0 0
left 0.0122343 1.01348e-16 0 0.0122343
right -0.860109 -2.22123e-14 0 -0.860109
bottom 0 0 0 0
frontAndBack 0 0 0 0
sum -0.847875 -2.21109e-14 0 -0.847875


Wall heat fluxes [W]
topAndBottom 0 0 0 0
left 1.58892 0 0 1.58892
right -0.936111 0 0 -0.936111
frontAndBack 0 0 0 0
sum 0.652811 0 0 0.652811

Time = 20

DILUPBiCG:  Solving for Ux, Initial residual = 0.0247643, Final residual = 3.2584e-06, No Iterations 2
DILUPBiCG:  Solving for Uy, Initial residual = 0.0352411, Final residual = 0.000266269, No Iterations 1
DICPCG:  Solving for p_rgh, Initial residual = 0.0427892, Final residual = 0.000349799, No Iterations 10
time step continuity errors : sum local = 0.000952888, global = 4.31391e-16, cumulative = -9.68972e-16
DILUPBiCG:  Solving for epsilon, Initial residual = 0.0234926, Final residual = 2.23116e-05, No Iterations 2
DILUPBiCG:  Solving for k, Initial residual = 0.0520787, Final residual = 8.78398e-05, No Iterations 2
BiCG:  Solving for T+T, Initial residual = 0.00151477, Final residual = 0.000123355, No Iterations 1
ExecutionTime = 0.05 s



Wall heat fluxes [W]
movingWall 0 0 0 0
left 0.0161038 5.79907e-17 0 0.0161038
right -0.862475 2.31592e-14 0 -0.862475
bottom 0 0 0 0
frontAndBack 0 0 0 0
sum -0.846371 2.32171e-14 0 -0.846371


Wall heat fluxes [W]
topAndBottom 0 0 0 0
left 0.884051 0 0 0.884051
right -0.93429 0 0 -0.93429
frontAndBack 0 0 0 0
sum -0.0502393 0 0 -0.0502393

Time = 21

DILUPBiCG:  Solving for Ux, Initial residual = 0.0234634, Final residual = 2.48387e-06, No Iterations 2
DILUPBiCG:  Solving for Uy, Initial residual = 0.0340462, Final residual = 0.00027965, No Iterations 1
DICPCG:  Solving for p_rgh, Initial residual = 0.0426094, Final residual = 0.000387971, No Iterations 10
time step continuity errors : sum local = 0.00109073, global = 2.63771e-16, cumulative = -7.052e-16
DILUPBiCG:  Solving for epsilon, Initial residual = 0.0237103, Final residual = 2.42217e-05, No Iterations 2
DILUPBiCG:  Solving for k, Initial residual = 0.0531613, Final residual = 9.39902e-05, No Iterations 2
BiCG:  Solving for T+T, Initial residual = 0.00151922, Final residual = 0.000141523, No Iterations 1
ExecutionTime = 0.05 s



Wall heat fluxes [W]
movingWall 0 0 0 0
left 0.0210989 -4.33575e-17 0 0.0210989
right -0.862822 1.57414e-14 0 -0.862822
bottom 0 0 0 0
frontAndBack 0 0 0 0
sum -0.841723 1.5698e-14 0 -0.841723


Wall heat fluxes [W]
topAndBottom 0 0 0 0
left 0.935455 0 0 0.935455
right -0.932456 0 0 -0.932456
frontAndBack 0 0 0 0
sum 0.00299853 0 0 0.00299853

Time = 22

DILUPBiCG:  Solving for Ux, Initial residual = 0.0215595, Final residual = 2.53452e-06, No Iterations 2
DILUPBiCG:  Solving for Uy, Initial residual = 0.0330215, Final residual = 0.000284918, No Iterations 1
DICPCG:  Solving for p_rgh, Initial residual = 0.0401846, Final residual = 0.000323524, No Iterations 10
time step continuity errors : sum local = 0.000946788, global = -4.24707e-16, cumulative = -1.12991e-15
DILUPBiCG:  Solving for epsilon, Initial residual = 0.0237288, Final residual = 2.62184e-05, No Iterations 2
DILUPBiCG:  Solving for k, Initial residual = 0.0541849, Final residual = 0.000100006, No Iterations 2
BiCG:  Solving for T+T, Initial residual = 0.00151767, Final residual = 0.000138089, No Iterations 1
ExecutionTime = 0.06 s



Wall heat fluxes [W]
movingWall 0 0 0 0
left 0.0272984 -1.4308e-16 0 0.0272984
right -0.86325 -2.31615e-14 0 -0.86325
bottom 0 0 0 0
frontAndBack 0 0 0 0
sum -0.835952 -2.33046e-14 0 -0.835952


Wall heat fluxes [W]
topAndBottom 0 0 0 0
left 0.908654 0 0 0.908654
right -0.930678 0 0 -0.930678
frontAndBack 0 0 0 0
sum -0.022024 0 0 -0.022024

Time = 23

DILUPBiCG:  Solving for Ux, Initial residual = 0.0198902, Final residual = 2.36265e-06, No Iterations 2
DILUPBiCG:  Solving for Uy, Initial residual = 0.0317922, Final residual = 0.000281699, No Iterations 1
DICPCG:  Solving for p_rgh, Initial residual = 0.0385397, Final residual = 0.000283932, No Iterations 10
time step continuity errors : sum local = 0.000815123, global = 1.00023e-16, cumulative = -1.02988e-15
DILUPBiCG:  Solving for epsilon, Initial residual = 0.0233593, Final residual = 2.8421e-05, No Iterations 2
DILUPBiCG:  Solving for k, Initial residual = 0.0550099, Final residual = 0.000105081, No Iterations 2
BiCG:  Solving for T+T, Initial residual = 0.00151849, Final residual = 0.000137002, No Iterations 1
ExecutionTime = 0.06 s



Wall heat fluxes [W]
movingWall 0 0 0 0
left 0.0347987 3.45776e-16 0 0.0347987
right -0.863492 6.48468e-15 0 -0.863492
bottom 0 0 0 0
frontAndBack 0 0 0 0
sum -0.828693 6.83046e-15 0 -0.828693


Wall heat fluxes [W]
topAndBottom 0 0 0 0
left 0.912593 0 0 0.912593
right -0.928965 0 0 -0.928965
frontAndBack 0 0 0 0
sum -0.0163722 0 0 -0.0163722

Time = 24

DILUPBiCG:  Solving for Ux, Initial residual = 0.0182517, Final residual = 2.36974e-06, No Iterations 2
DILUPBiCG:  Solving for Uy, Initial residual = 0.0302961, Final residual = 0.000281097, No Iterations 1
DICPCG:  Solving for p_rgh, Initial residual = 0.0376328, Final residual = 0.00032917, No Iterations 10
time step continuity errors : sum local = 0.00101701, global = -9.83352e-17, cumulative = -1.12822e-15
DILUPBiCG:  Solving for epsilon, Initial residual = 0.0225436, Final residual = 3.01345e-05, No Iterations 2
DILUPBiCG:  Solving for k, Initial residual = 0.0554885, Final residual = 0.000108341, No Iterations 2
BiCG:  Solving for T+T, Initial residual = 0.00150882, Final residual = 0.000135692, No Iterations 1
ExecutionTime = 0.06 s



Wall heat fluxes [W]
movingWall 0 0 0 0
left 0.043651 8.02114e-16 0 0.043651
right -0.863595 -5.55577e-15 0 -0.863595
bottom 0 0 0 0
frontAndBack 0 0 0 0
sum -0.819944 -4.75366e-15 0 -0.819944


Wall heat fluxes [W]
topAndBottom 0 0 0 0
left 0.909271 0 0 0.909271
right -0.927316 0 0 -0.927316
frontAndBack 0 0 0 0
sum -0.0180454 0 0 -0.0180454

Time = 25

DILUPBiCG:  Solving for Ux, Initial residual = 0.0166788, Final residual = 2.69549e-06, No Iterations 2
DILUPBiCG:  Solving for Uy, Initial residual = 0.0286978, Final residual = 0.000278077, No Iterations 1
DICPCG:  Solving for p_rgh, Initial residual = 0.0370262, Final residual = 0.000236102, No Iterations 11
time step continuity errors : sum local = 0.000773851, global = -2.48551e-16, cumulative = -1.37677e-15
DILUPBiCG:  Solving for epsilon, Initial residual = 0.0216561, Final residual = 3.12698e-05, No Iterations 2
DILUPBiCG:  Solving for k, Initial residual = 0.0553605, Final residual = 0.000110284, No Iterations 2
BiCG:  Solving for T+T, Initial residual = 0.00149321, Final residual = 0.000134783, No Iterations 1
ExecutionTime = 0.06 s



Wall heat fluxes [W]
movingWall 0 0 0 0
left 0.0538482 9.45193e-16 0 0.0538482
right -0.863506 -1.48262e-14 0 -0.863506
bottom 0 0 0 0
frontAndBack 0 0 0 0
sum -0.809658 -1.3881e-14 0 -0.809658


Wall heat fluxes [W]
topAndBottom 0 0 0 0
left 0.908861 0 0 0.908861
right -0.925726 0 0 -0.925726
frontAndBack 0 0 0 0
sum -0.0168653 0 0 -0.0168653

Time = 26

DILUPBiCG:  Solving for Ux, Initial residual = 0.0151845, Final residual = 4.78274e-06, No Iterations 2
DILUPBiCG:  Solving for Uy, Initial residual = 0.0269051, Final residual = 3.68662e-06, No Iterations 2
DICPCG:  Solving for p_rgh, Initial residual = 0.0365186, Final residual = 0.000259676, No Iterations 11
time step continuity errors : sum local = 0.000849411, global = 3.15983e-16, cumulative = -1.06079e-15
DILUPBiCG:  Solving for epsilon, Initial residual = 0.020415, Final residual = 3.13101e-05, No Iterations 2
DILUPBiCG:  Solving for k, Initial residual = 0.0547555, Final residual = 0.000110906, No Iterations 2
BiCG:  Solving for T+T, Initial residual = 0.00146906, Final residual = 0.000134146, No Iterations 1
ExecutionTime = 0.06 s



Wall heat fluxes [W]
movingWall 0 0 0 0
left 0.0652851 1.51751e-17 0 0.0652851
right -0.863216 1.85334e-14 0 -0.863216
bottom 0 0 0 0
frontAndBack 0 0 0 0
sum -0.797931 1.85485e-14 0 -0.797931


Wall heat fluxes [W]
topAndBottom 0 0 0 0
left 0.907879 0 0 0.907879
right -0.924187 0 0 -0.924187
frontAndBack 0 0 0 0
sum -0.0163084 0 0 -0.0163084

Time = 27

DILUPBiCG:  Solving for Ux, Initial residual = 0.0140398, Final residual = 4.87365e-05, No Iterations 2
DILUPBiCG:  Solving for Uy, Initial residual = 0.0250766, Final residual = 3.03934e-06, No Iterations 2
DICPCG:  Solving for p_rgh, Initial residual = 0.0344562, Final residual = 0.000254799, No Iterations 11
time step continuity errors : sum local = 0.00082128, global = 3.86459e-16, cumulative = -6.74329e-16
DILUPBiCG:  Solving for epsilon, Initial residual = 0.0190005, Final residual = 3.1553e-05, No Iterations 2
DILUPBiCG:  Solving for k, Initial residual = 0.0537592, Final residual = 0.000110658, No Iterations 2
BiCG:  Solving for T+T, Initial residual = 0.00144578, Final residual = 0.00013381, No Iterations 1
ExecutionTime = 0.06 s



Wall heat fluxes [W]
movingWall 0 0 0 0
left 0.0778104 -6.9372e-16 0 0.0778104
right -0.862713 2.2239e-14 0 -0.862713
bottom 0 0 0 0
frontAndBack 0 0 0 0
sum -0.784903 2.15452e-14 0 -0.784903


Wall heat fluxes [W]
topAndBottom 0 0 0 0
left 0.907242 0 0 0.907242
right -0.922695 0 0 -0.922695
frontAndBack 0 0 0 0
sum -0.0154527 0 0 -0.0154527

Time = 28

DILUPBiCG:  Solving for Ux, Initial residual = 0.0130073, Final residual = 4.28087e-06, No Iterations 2
DILUPBiCG:  Solving for Uy, Initial residual = 0.0233586, Final residual = 4.54964e-06, No Iterations 2
DICPCG:  Solving for p_rgh, Initial residual = 0.0317537, Final residual = 0.000191823, No Iterations 11
time step continuity errors : sum local = 0.000626758, global = -2.60328e-16, cumulative = -9.34657e-16
DILUPBiCG:  Solving for epsilon, Initial residual = 0.017453, Final residual = 3.3863e-05, No Iterations 2
DILUPBiCG:  Solving for k, Initial residual = 0.0521327, Final residual = 0.000107716, No Iterations 2
BiCG:  Solving for T+T, Initial residual = 0.00141825, Final residual = 0.000133579, No Iterations 1
ExecutionTime = 0.07 s



Wall heat fluxes [W]
movingWall 0 0 0 0
left 0.0911572 -3.25181e-16 0 0.0911572
right -0.861994 -1.29738e-14 0 -0.861994
bottom 0 0 0 0
frontAndBack 0 0 0 0
sum -0.770837 -1.3299e-14 0 -0.770837


Wall heat fluxes [W]
topAndBottom 0 0 0 0
left 0.906573 0 0 0.906573
right -0.921246 0 0 -0.921246
frontAndBack 0 0 0 0
sum -0.0146723 0 0 -0.0146723

Time = 29

DILUPBiCG:  Solving for Ux, Initial residual = 0.0120757, Final residual = 2.91658e-06, No Iterations 2
DILUPBiCG:  Solving for Uy, Initial residual = 0.0215752, Final residual = 4.80517e-06, No Iterations 2
DICPCG:  Solving for p_rgh, Initial residual = 0.0297734, Final residual = 0.000251831, No Iterations 6
time step continuity errors : sum local = 0.000992089, global = -5.39984e-16, cumulative = -1.47464e-15
DILUPBiCG:  Solving for epsilon, Initial residual = 0.0158339, Final residual = 4.39833e-05, No Iterations 2
DILUPBiCG:  Solving for k, Initial residual = 0.050195, Final residual = 0.000102441, No Iterations 2
BiCG:  Solving for T+T, Initial residual = 0.00138681, Final residual = 0.000133702, No Iterations 1
ExecutionTime = 0.07 s



Wall heat fluxes [W]
movingWall 0 0 0 0
left 0.105061 -9.19179e-16 0 0.105061
right -0.86106 -2.59518e-14 0 -0.86106
bottom 0 0 0 0
frontAndBack 0 0 0 0
sum -0.755999 -2.68709e-14 0 -0.755999


Wall heat fluxes [W]
topAndBottom 0 0 0 0
left 0.905946 0 0 0.905946
right -0.919836 0 0 -0.919836
frontAndBack 0 0 0 0
sum -0.0138898 0 0 -0.0138898

Time = 30

DILUPBiCG:  Solving for Ux, Initial residual = 0.0111024, Final residual = 2.64491e-06, No Iterations 2
DILUPBiCG:  Solving for Uy, Initial residual = 0.0202707, Final residual = 5.27432e-06, No Iterations 2
DICPCG:  Solving for p_rgh, Initial residual = 0.0278338, Final residual = 0.000123237, No Iterations 11
time step continuity errors : sum local = 0.000395072, global = 1.42672e-16, cumulative = -1.33197e-15
DILUPBiCG:  Solving for epsilon, Initial residual = 0.0147273, Final residual = 0.000143767, No Iterations 2
DILUPBiCG:  Solving for k, Initial residual = 0.0477102, Final residual = 9.58976e-05, No Iterations 2
BiCG:  Solving for T+T, Initial residual = 0.00134853, Final residual = 0.000133702, No Iterations 1
ExecutionTime = 0.07 s



Wall heat fluxes [W]
movingWall 0 0 0 0
left 0.119179 7.37077e-16 0 0.119179
right -0.859913 4.63289e-15 0 -0.859913
bottom 0 0 0 0
frontAndBack 0 0 0 0
sum -0.740734 5.36997e-15 0 -0.740734


Wall heat fluxes [W]
topAndBottom 0 0 0 0
left 0.905307 0 0 0.905307
right -0.918461 0 0 -0.918461
frontAndBack 0 0 0 0
sum -0.0131537 0 0 -0.0131537

Time = 31

DILUPBiCG:  Solving for Ux, Initial residual = 0.0105429, Final residual = 2.61759e-06, No Iterations 2
DILUPBiCG:  Solving for Uy, Initial residual = 0.0191569, Final residual = 8.06253e-06, No Iterations 2
DICPCG:  Solving for p_rgh, Initial residual = 0.0263645, Final residual = 0.000187448, No Iterations 6
time step continuity errors : sum local = 0.000617607, global = 2.59668e-16, cumulative = -1.0723e-15
DILUPBiCG:  Solving for epsilon, Initial residual = 0.0137131, Final residual = 4.17017e-05, No Iterations 2
DILUPBiCG:  Solving for k, Initial residual = 0.0450553, Final residual = 9.24821e-05, No Iterations 2
BiCG:  Solving for T+T, Initial residual = 0.00130995, Final residual = 9.79087e-05, No Iterations 2
ExecutionTime = 0.07 s



Wall heat fluxes [W]
movingWall 0 0 0 0
left 0.133038 -3.4686e-17 0 0.133038
right -0.858619 1.48301e-14 0 -0.858619
bottom 0 0 0 0
frontAndBack 0 0 0 0
sum -0.725581 1.47954e-14 0 -0.725581


Wall heat fluxes [W]
topAndBottom 0 0 0 0
left 0.96623 0 0 0.96623
right -0.915287 0 0 -0.915287
frontAndBack 0 0 0 0
sum 0.0509428 0 0 0.0509428

Time = 32

DILUPBiCG:  Solving for Ux, Initial residual = 0.0101472, Final residual = 8.869e-05, No Iterations 1
DILUPBiCG:  Solving for Uy, Initial residual = 0.0179916, Final residual = 1.289e-05, No Iterations 2
DICPCG:  Solving for p_rgh, Initial residual = 0.0249767, Final residual = 0.00020183, No Iterations 6
time step continuity errors : sum local = 0.000834017, global = 2.51198e-16, cumulative = -8.21102e-16
DILUPBiCG:  Solving for epsilon, Initial residual = 0.0128579, Final residual = 1.75639e-05, No Iterations 2
DILUPBiCG:  Solving for k, Initial residual = 0.042554, Final residual = 7.00201e-05, No Iterations 2
BiCG:  Solving for T+T, Initial residual = 0.00127166, Final residual = 9.26653e-05, No Iterations 2
ExecutionTime = 0.07 s



Wall heat fluxes [W]
movingWall 0 0 0 0
left 0.146434 -4.16232e-16 0 0.146434
right -0.857287 1.29779e-14 0 -0.857287
bottom 0 0 0 0
frontAndBack 0 0 0 0
sum -0.710853 1.25617e-14 0 -0.710853


Wall heat fluxes [W]
topAndBottom 0 0 0 0
left 0.953639 0 0 0.953639
right -0.912297 0 0 -0.912297
frontAndBack 0 0 0 0
sum 0.0413417 0 0 0.0413417

Time = 33

DILUPBiCG:  Solving for Ux, Initial residual = 0.00959848, Final residual = 7.9982e-05, No Iterations 1
DILUPBiCG:  Solving for Uy, Initial residual = 0.0174916, Final residual = 2.2707e-05, No Iterations 2
DICPCG:  Solving for p_rgh, Initial residual = 0.024258, Final residual = 0.000169518, No Iterations 11
time step continuity errors : sum local = 0.000533439, global = -2.75286e-16, cumulative = -1.09639e-15
DILUPBiCG:  Solving for epsilon, Initial residual = 0.0121891, Final residual = 1.18158e-05, No Iterations 2
DILUPBiCG:  Solving for k, Initial residual = 0.040116, Final residual = 6.77636e-05, No Iterations 2
BiCG:  Solving for T+T, Initial residual = 0.00124293, Final residual = 9.17075e-05, No Iterations 2
ExecutionTime = 0.08 s



Wall heat fluxes [W]
movingWall 0 0 0 0
left 0.159255 1.00589e-15 0 0.159255
right -0.855695 -1.66892e-14 0 -0.855695
bottom 0 0 0 0
frontAndBack 0 0 0 0
sum -0.69644 -1.56833e-14 0 -0.69644


Wall heat fluxes [W]
topAndBottom 0 0 0 0
left 0.953918 0 0 0.953918
right -0.909402 0 0 -0.909402
frontAndBack 0 0 0 0
sum 0.0445155 0 0 0.0445155

Time = 34

DILUPBiCG:  Solving for Ux, Initial residual = 0.00917167, Final residual = 8.20316e-05, No Iterations 1
DILUPBiCG:  Solving for Uy, Initial residual = 0.0174803, Final residual = 4.95154e-05, No Iterations 2
DICPCG:  Solving for p_rgh, Initial residual = 0.0235488, Final residual = 0.000224543, No Iterations 6
time step continuity errors : sum local = 0.00100708, global = -4.02605e-16, cumulative = -1.49899e-15
DILUPBiCG:  Solving for epsilon, Initial residual = 0.0115336, Final residual = 9.09475e-06, No Iterations 2
DILUPBiCG:  Solving for k, Initial residual = 0.0379869, Final residual = 6.15715e-05, No Iterations 2
BiCG:  Solving for T+T, Initial residual = 0.00122431, Final residual = 0.00012185, No Iterations 1
ExecutionTime = 0.08 s



Wall heat fluxes [W]
movingWall 0 0 0 0
left 0.1716 -3.12174e-16 0 0.1716
right -0.853782 -2.31791e-14 0 -0.853782
bottom 0 0 0 0
frontAndBack 0 0 0 0
sum -0.682182 -2.34913e-14 0 -0.682182


Wall heat fluxes [W]
topAndBottom 0 0 0 0
left 0.893123 0 0 0.893123
right -0.90822 0 0 -0.90822
frontAndBack 0 0 0 0
sum -0.015097 0 0 -0.015097

Time = 35

DILUPBiCG:  Solving for Ux, Initial residual = 0.00888595, Final residual = 8.84088e-05, No Iterations 1
DILUPBiCG:  Solving for Uy, Initial residual = 0.0179064, Final residual = 0.00017694, No Iterations 1
DICPCG:  Solving for p_rgh, Initial residual = 0.0227153, Final residual = 0.000141744, No Iterations 11
time step continuity errors : sum local = 0.000439529, global = 3.07051e-17, cumulative = -1.46829e-15
DILUPBiCG:  Solving for epsilon, Initial residual = 0.010914, Final residual = 7.5416e-06, No Iterations 2
DILUPBiCG:  Solving for k, Initial residual = 0.0359818, Final residual = 5.56042e-05, No Iterations 2
BiCG:  Solving for T+T, Initial residual = 0.00121309, Final residual = 9.77879e-05, No Iterations 2
ExecutionTime = 0.08 s



Wall heat fluxes [W]
movingWall 0 0 0 0
left 0.182777 9.71208e-16 0 0.182777
right -0.851576 -9.28589e-19 0 -0.851576
bottom 0 0 0 0
frontAndBack 0 0 0 0
sum -0.668799 9.70279e-16 0 -0.668799


Wall heat fluxes [W]
topAndBottom 0 0 0 0
left 0.967823 0 0 0.967823
right -0.905288 0 0 -0.905288
frontAndBack 0 0 0 0
sum 0.0625351 0 0 0.0625351

Time = 36

DILUPBiCG:  Solving for Ux, Initial residual = 0.00890206, Final residual = 2.41437e-06, No Iterations 2
DILUPBiCG:  Solving for Uy, Initial residual = 0.0169122, Final residual = 1.32604e-05, No Iterations 2
DICPCG:  Solving for p_rgh, Initial residual = 0.0212679, Final residual = 0.000121283, No Iterations 11
time step continuity errors : sum local = 0.00037148, global = 4.18223e-17, cumulative = -1.42647e-15
DILUPBiCG:  Solving for epsilon, Initial residual = 0.0103526, Final residual = 6.82857e-06, No Iterations 2
DILUPBiCG:  Solving for k, Initial residual = 0.0339334, Final residual = 5.29736e-05, No Iterations 2
BiCG:  Solving for T+T, Initial residual = 0.00119643, Final residual = 0.000117831, No Iterations 1
ExecutionTime = 0.08 s



Wall heat fluxes [W]
movingWall 0 0 0 0
left 0.19333 1.7343e-15 0 0.19333
right -0.849227 -2.08823e-18 0 -0.849227
bottom 0 0 0 0
frontAndBack 0 0 0 0
sum -0.655897 1.73221e-15 0 -0.655897


Wall heat fluxes [W]
topAndBottom 0 0 0 0
left 0.88669 0 0 0.88669
right -0.904152 0 0 -0.904152
frontAndBack 0 0 0 0
sum -0.0174626 0 0 -0.0174626

Time = 37

DILUPBiCG:  Solving for Ux, Initial residual = 0.00894543, Final residual = 5.12451e-06, No Iterations 2
DILUPBiCG:  Solving for Uy, Initial residual = 0.0168013, Final residual = 7.27431e-06, No Iterations 2
DICPCG:  Solving for p_rgh, Initial residual = 0.0208741, Final residual = 0.000185517, No Iterations 6
time step continuity errors : sum local = 0.00084801, global = -6.2204e-18, cumulative = -1.43269e-15
DILUPBiCG:  Solving for epsilon, Initial residual = 0.00979942, Final residual = 6.40212e-06, No Iterations 2
DILUPBiCG:  Solving for k, Initial residual = 0.0319148, Final residual = 5.24169e-05, No Iterations 2
BiCG:  Solving for T+T, Initial residual = 0.00118694, Final residual = 0.000104057, No Iterations 2
ExecutionTime = 0.08 s



Wall heat fluxes [W]
movingWall 0 0 0 0
left 0.202458 -2.20256e-15 0 0.202458
right -0.846581 1.8543e-15 0 -0.846581
bottom 0 0 0 0
frontAndBack 0 0 0 0
sum -0.644123 -3.48265e-16 0 -0.644123


Wall heat fluxes [W]
topAndBottom 0 0 0 0
left 0.979164 0 0 0.979164
right -0.901018 0 0 -0.901018
frontAndBack 0 0 0 0
sum 0.0781455 0 0 0.0781455

Time = 38

DILUPBiCG:  Solving for Ux, Initial residual = 0.0090979, Final residual = 8.77501e-06, No Iterations 2
DILUPBiCG:  Solving for Uy, Initial residual = 0.0161276, Final residual = 2.57225e-06, No Iterations 2
DICPCG:  Solving for p_rgh, Initial residual = 0.0191389, Final residual = 0.000145804, No Iterations 10
time step continuity errors : sum local = 0.000450994, global = 3.18034e-16, cumulative = -1.11465e-15
DILUPBiCG:  Solving for epsilon, Initial residual = 0.00928674, Final residual = 5.97775e-06, No Iterations 2
DILUPBiCG:  Solving for k, Initial residual = 0.0299969, Final residual = 5.43378e-05, No Iterations 2
BiCG:  Solving for T+T, Initial residual = 0.00117324, Final residual = 0.00011452, No Iterations 1
ExecutionTime = 0.08 s



Wall heat fluxes [W]
movingWall 0 0 0 0
left 0.210966 1.66493e-15 0 0.210966
right -0.843811 1.48354e-14 0 -0.843811
bottom 0 0 0 0
frontAndBack 0 0 0 0
sum -0.632844 1.65004e-14 0 -0.632844


Wall heat fluxes [W]
topAndBottom 0 0 0 0
left 0.880342 0 0 0.880342
right -0.899897 0 0 -0.899897
frontAndBack 0 0 0 0
sum -0.0195544 0 0 -0.0195544

Time = 39

DILUPBiCG:  Solving for Ux, Initial residual = 0.00910849, Final residual = 1.60229e-06, No Iterations 2
DILUPBiCG:  Solving for Uy, Initial residual = 0.0158707, Final residual = 2.14539e-06, No Iterations 2
DICPCG:  Solving for p_rgh, Initial residual = 0.018834, Final residual = 0.000119545, No Iterations 10
time step continuity errors : sum local = 0.000367409, global = -2.77666e-16, cumulative = -1.39232e-15
DILUPBiCG:  Solving for epsilon, Initial residual = 0.00877888, Final residual = 5.57213e-06, No Iterations 2
DILUPBiCG:  Solving for k, Initial residual = 0.0281759, Final residual = 5.53207e-05, No Iterations 2
BiCG:  Solving for T+T, Initial residual = 0.00116764, Final residual = 0.000111494, No Iterations 2
ExecutionTime = 0.09 s



Wall heat fluxes [W]
movingWall 0 0 0 0
left 0.218143 -9.71208e-16 0 0.218143
right -0.840758 -1.39155e-14 0 -0.840758
bottom 0 0 0 0
frontAndBack 0 0 0 0
sum -0.622616 -1.48867e-14 0 -0.622616


Wall heat fluxes [W]
topAndBottom 0 0 0 0
left 0.998012 0 0 0.998012
right -0.896342 0 0 -0.896342
frontAndBack 0 0 0 0
sum 0.10167 0 0 0.10167

Time = 40

DILUPBiCG:  Solving for Ux, Initial residual = 0.00923145, Final residual = 1.06863e-06, No Iterations 2
DILUPBiCG:  Solving for Uy, Initial residual = 0.0149152, Final residual = 1.66976e-06, No Iterations 2
DICPCG:  Solving for p_rgh, Initial residual = 0.0172796, Final residual = 0.000146275, No Iterations 4
time step continuity errors : sum local = 0.000631114, global = -2.39287e-16, cumulative = -1.63161e-15
DILUPBiCG:  Solving for epsilon, Initial residual = 0.00829989, Final residual = 5.24518e-06, No Iterations 2
DILUPBiCG:  Solving for k, Initial residual = 0.0264426, Final residual = 5.62873e-05, No Iterations 2
BiCG:  Solving for T+T, Initial residual = 0.00115483, Final residual = 0.000112638, No Iterations 1
ExecutionTime = 0.09 s



Wall heat fluxes [W]
movingWall 0 0 0 0
left 0.224728 -2.04647e-15 0 0.224728
right -0.837627 -9.27793e-15 0 -0.837627
bottom 0 0 0 0
frontAndBack 0 0 0 0
sum -0.612899 -1.13244e-14 0 -0.612899


Wall heat fluxes [W]
topAndBottom 0 0 0 0
left 0.872128 0 0 0.872128
right -0.895212 0 0 -0.895212
frontAndBack 0 0 0 0
sum -0.0230842 0 0 -0.0230842

Time = 41

DILUPBiCG:  Solving for Ux, Initial residual = 0.00896604, Final residual = 8.98833e-07, No Iterations 2
DILUPBiCG:  Solving for Uy, Initial residual = 0.0149684, Final residual = 1.44181e-06, No Iterations 2
DICPCG:  Solving for p_rgh, Initial residual = 0.0174319, Final residual = 9.10144e-05, No Iterations 10
time step continuity errors : sum local = 0.000283157, global = -5.53218e-17, cumulative = -1.68693e-15
DILUPBiCG:  Solving for epsilon, Initial residual = 0.00778417, Final residual = 4.97435e-06, No Iterations 2
DILUPBiCG:  Solving for k, Initial residual = 0.0247883, Final residual = 5.48459e-05, No Iterations 2
BiCG:  Solving for T+T, Initial residual = 0.00115238, Final residual = 4.00473e-05, No Iterations 3
ExecutionTime = 0.09 s



Wall heat fluxes [W]
movingWall 0 0 0 0
left 0.230383 9.71208e-16 0 0.230383
right -0.834023 -4.63557e-15 0 -0.834023
bottom 0 0 0 0
frontAndBack 0 0 0 0
sum -0.60364 -3.66436e-15 0 -0.60364


Wall heat fluxes [W]
topAndBottom 0 0 0 0
left 1.32594 0 0 1.32594
right -0.88265 0 0 -0.88265
frontAndBack 0 0 0 0
sum 0.443291 0 0 0.443291

Time = 42

DILUPBiCG:  Solving for Ux, Initial residual = 0.0091047, Final residual = 9.95329e-07, No Iterations 2
DILUPBiCG:  Solving for Uy, Initial residual = 0.0141608, Final residual = 1.24344e-06, No Iterations 2
DICPCG:  Solving for p_rgh, Initial residual = 0.0165565, Final residual = 0.000138608, No Iterations 5
time step continuity errors : sum local = 0.000550616, global = -1.15146e-16, cumulative = -1.80207e-15
DILUPBiCG:  Solving for epsilon, Initial residual = 0.00731412, Final residual = 4.70887e-06, No Iterations 2
DILUPBiCG:  Solving for k, Initial residual = 0.0232495, Final residual = 5.37577e-05, No Iterations 2
BiCG:  Solving for T+T, Initial residual = 0.00112322, Final residual = 8.78298e-05, No Iterations 1
ExecutionTime = 0.09 s



Wall heat fluxes [W]
movingWall 0 0 0 0
left 0.23545 1.7343e-15 0 0.23545
right -0.831512 -1.11388e-14 0 -0.831512
bottom 0 0 0 0
frontAndBack 0 0 0 0
sum -0.596062 -9.4045e-15 0 -0.596062


Wall heat fluxes [W]
topAndBottom 0 0 0 0
left 0.848347 0 0 0.848347
right -0.881467 0 0 -0.881467
frontAndBack 0 0 0 0
sum -0.0331199 0 0 -0.0331199

Time = 43

DILUPBiCG:  Solving for Ux, Initial residual = 0.00822826, Final residual = 1.01992e-06, No Iterations 2
DILUPBiCG:  Solving for Uy, Initial residual = 0.0137831, Final residual = 1.14146e-06, No Iterations 2
DICPCG:  Solving for p_rgh, Initial residual = 0.0166342, Final residual = 0.000130872, No Iterations 5
time step continuity errors : sum local = 0.000515074, global = 1.17791e-16, cumulative = -1.68428e-15
DILUPBiCG:  Solving for epsilon, Initial residual = 0.00685674, Final residual = 4.45853e-06, No Iterations 2
DILUPBiCG:  Solving for k, Initial residual = 0.0217521, Final residual = 5.24477e-05, No Iterations 2
BiCG:  Solving for T+T, Initial residual = 0.00112499, Final residual = 0.000107542, No Iterations 1
ExecutionTime = 0.09 s



Wall heat fluxes [W]
movingWall 0 0 0 0
left 0.239972 -3.4686e-16 0 0.239972
right -0.827526 1.02132e-14 0 -0.827526
bottom 0 0 0 0
frontAndBack 0 0 0 0
sum -0.587554 9.86634e-15 0 -0.587554


Wall heat fluxes [W]
topAndBottom 0 0 0 0
left 0.884946 0 0 0.884946
right -0.88025 0 0 -0.88025
frontAndBack 0 0 0 0
sum 0.00469639 0 0 0.00469639

Time = 44

DILUPBiCG:  Solving for Ux, Initial residual = 0.00879034, Final residual = 8.64992e-05, No Iterations 1
DILUPBiCG:  Solving for Uy, Initial residual = 0.0132881, Final residual = 1.15013e-06, No Iterations 2
DICPCG:  Solving for p_rgh, Initial residual = 0.0167995, Final residual = 0.000111402, No Iterations 5
time step continuity errors : sum local = 0.00042154, global = -3.39607e-16, cumulative = -2.02389e-15
DILUPBiCG:  Solving for epsilon, Initial residual = 0.00640771, Final residual = 4.21182e-06, No Iterations 2
DILUPBiCG:  Solving for k, Initial residual = 0.0203544, Final residual = 4.95514e-05, No Iterations 2
BiCG:  Solving for T+T, Initial residual = 0.0011205, Final residual = 0.000110763, No Iterations 1
ExecutionTime = 0.1 s



Wall heat fluxes [W]
movingWall 0 0 0 0
left 0.244039 -4.50918e-16 0 0.244039
right -0.823579 -2.04197e-14 0 -0.823579
bottom 0 0 0 0
frontAndBack 0 0 0 0
sum -0.57954 -2.08707e-14 0 -0.57954


Wall heat fluxes [W]
topAndBottom 0 0 0 0
left 0.870711 0 0 0.870711
right -0.879052 0 0 -0.879052
frontAndBack 0 0 0 0
sum -0.00834072 0 0 -0.00834072

Time = 45

DILUPBiCG:  Solving for Ux, Initial residual = 0.00850103, Final residual = 8.13752e-05, No Iterations 1
DILUPBiCG:  Solving for Uy, Initial residual = 0.0126991, Final residual = 1.2708e-06, No Iterations 2
DICPCG:  Solving for p_rgh, Initial residual = 0.0169556, Final residual = 0.000118601, No Iterations 5
time step continuity errors : sum local = 0.000403305, global = 9.79382e-18, cumulative = -2.0141e-15
DILUPBiCG:  Solving for epsilon, Initial residual = 0.00611262, Final residual = 3.97188e-06, No Iterations 2
DILUPBiCG:  Solving for k, Initial residual = 0.0190853, Final residual = 4.65007e-05, No Iterations 2
BiCG:  Solving for T+T, Initial residual = 0.0011186, Final residual = 4.54222e-05, No Iterations 3
ExecutionTime = 0.1 s



Wall heat fluxes [W]
movingWall 0 0 0 0
left 0.24776 2.77488e-16 0 0.24776
right -0.819595 -4.9481e-19 0 -0.819595
bottom 0 0 0 0
frontAndBack 0 0 0 0
sum -0.571835 2.76993e-16 0 -0.571835


Wall heat fluxes [W]
topAndBottom 0 0 0 0
left 1.29655 0 0 1.29655
right -0.866798 0 0 -0.866798
frontAndBack 0 0 0 0
sum 0.429751 0 0 0.429751

Time = 46

DILUPBiCG:  Solving for Ux, Initial residual = 0.00831291, Final residual = 7.63672e-05, No Iterations 1
DILUPBiCG:  Solving for Uy, Initial residual = 0.0118612, Final residual = 1.50932e-06, No Iterations 2
DICPCG:  Solving for p_rgh, Initial residual = 0.0166298, Final residual = 0.000164159, No Iterations 5
time step continuity errors : sum local = 0.000755922, global = 8.77473e-17, cumulative = -1.92635e-15
DILUPBiCG:  Solving for epsilon, Initial residual = 0.00584748, Final residual = 3.75449e-06, No Iterations 2
DILUPBiCG:  Solving for k, Initial residual = 0.0180734, Final residual = 4.43316e-05, No Iterations 2
BiCG:  Solving for T+T, Initial residual = 0.00109315, Final residual = 8.66497e-05, No Iterations 1
ExecutionTime = 0.1 s



Wall heat fluxes [W]
movingWall 0 0 0 0
left 0.251266 1.80367e-15 0 0.251266
right -0.816785 9.25392e-16 0 -0.816785
bottom 0 0 0 0
frontAndBack 0 0 0 0
sum -0.565519 2.72906e-15 0 -0.565519


Wall heat fluxes [W]
topAndBottom 0 0 0 0
left 0.834503 0 0 0.834503
right -0.865742 0 0 -0.865742
frontAndBack 0 0 0 0
sum -0.0312386 0 0 -0.0312386

Time = 47

DILUPBiCG:  Solving for Ux, Initial residual = 0.00739298, Final residual = 7.30839e-05, No Iterations 1
DILUPBiCG:  Solving for Uy, Initial residual = 0.0114791, Final residual = 1.99297e-06, No Iterations 2
DICPCG:  Solving for p_rgh, Initial residual = 0.0173741, Final residual = 0.000160489, No Iterations 10
time step continuity errors : sum local = 0.00051289, global = -1.39496e-16, cumulative = -2.06584e-15
DILUPBiCG:  Solving for epsilon, Initial residual = 0.00556365, Final residual = 3.52177e-06, No Iterations 2
DILUPBiCG:  Solving for k, Initial residual = 0.0171417, Final residual = 4.17614e-05, No Iterations 2
BiCG:  Solving for T+T, Initial residual = 0.00109565, Final residual = 0.000107466, No Iterations 1
ExecutionTime = 0.1 s



Wall heat fluxes [W]
movingWall 0 0 0 0
left 0.254638 1.80367e-15 0 0.254638
right -0.812713 -9.28952e-15 0 -0.812713
bottom 0 0 0 0
frontAndBack 0 0 0 0
sum -0.558075 -7.48584e-15 0 -0.558075


Wall heat fluxes [W]
topAndBottom 0 0 0 0
left 0.868442 0 0 0.868442
right -0.864603 0 0 -0.864603
frontAndBack 0 0 0 0
sum 0.0038385 0 0 0.0038385

Time = 48

DILUPBiCG:  Solving for Ux, Initial residual = 0.00794796, Final residual = 6.42994e-05, No Iterations 1
DILUPBiCG:  Solving for Uy, Initial residual = 0.0109744, Final residual = 2.34723e-06, No Iterations 2
DICPCG:  Solving for p_rgh, Initial residual = 0.01775, Final residual = 0.000161804, No Iterations 6
time step continuity errors : sum local = 0.000800221, global = 6.3392e-17, cumulative = -2.00245e-15
DILUPBiCG:  Solving for epsilon, Initial residual = 0.00527059, Final residual = 3.29869e-06, No Iterations 2
DILUPBiCG:  Solving for k, Initial residual = 0.0161925, Final residual = 3.99626e-05, No Iterations 2
BiCG:  Solving for T+T, Initial residual = 0.00109258, Final residual = 4.94044e-05, No Iterations 3
ExecutionTime = 0.1 s



Wall heat fluxes [W]
movingWall 0 0 0 0
left 0.258025 2.2199e-15 0 0.258025
right -0.808857 -9.27725e-16 0 -0.808857
bottom 0 0 0 0
frontAndBack 0 0 0 0
sum -0.550832 1.29218e-15 0 -0.550832


Wall heat fluxes [W]
topAndBottom 0 0 0 0
left 1.24448 0 0 1.24448
right -0.85256 0 0 -0.85256
frontAndBack 0 0 0 0
sum 0.391916 0 0 0.391916

Time = 49

DILUPBiCG:  Solving for Ux, Initial residual = 0.00769913, Final residual = 6.31607e-05, No Iterations 1
DILUPBiCG:  Solving for Uy, Initial residual = 0.0100562, Final residual = 4.98978e-06, No Iterations 2
DICPCG:  Solving for p_rgh, Initial residual = 0.0177316, Final residual = 0.000123178, No Iterations 10
time step continuity errors : sum local = 0.000398136, global = -6.23363e-17, cumulative = -2.06479e-15
DILUPBiCG:  Solving for epsilon, Initial residual = 0.00495763, Final residual = 3.09741e-06, No Iterations 2
DILUPBiCG:  Solving for k, Initial residual = 0.0152774, Final residual = 3.82012e-05, No Iterations 2
BiCG:  Solving for T+T, Initial residual = 0.00106783, Final residual = 8.38756e-05, No Iterations 1
ExecutionTime = 0.1 s



Wall heat fluxes [W]
movingWall 0 0 0 0
left 0.261336 -3.12174e-16 0 0.261336
right -0.806138 -3.7172e-15 0 -0.806138
bottom 0 0 0 0
frontAndBack 0 0 0 0
sum -0.544802 -4.02937e-15 0 -0.544802


Wall heat fluxes [W]
topAndBottom 0 0 0 0
left 0.825675 0 0 0.825675
right -0.85162 0 0 -0.85162
frontAndBack 0 0 0 0
sum -0.0259449 0 0 -0.0259449

Time = 50

DILUPBiCG:  Solving for Ux, Initial residual = 0.00685269, Final residual = 5.79945e-05, No Iterations 1
DILUPBiCG:  Solving for Uy, Initial residual = 0.00986473, Final residual = 3.41708e-06, No Iterations 2
DICPCG:  Solving for p_rgh, Initial residual = 0.0183161, Final residual = 0.000123691, No Iterations 10
time step continuity errors : sum local = 0.000401269, global = -9.13207e-18, cumulative = -2.07392e-15
DILUPBiCG:  Solving for epsilon, Initial residual = 0.00465221, Final residual = 2.87862e-06, No Iterations 2
DILUPBiCG:  Solving for k, Initial residual = 0.014326, Final residual = 3.62769e-05, No Iterations 2
BiCG:  Solving for T+T, Initial residual = 0.00106802, Final residual = 0.00010375, No Iterations 1
ExecutionTime = 0.11 s



Wall heat fluxes [W]
movingWall 0 0 0 0
left 0.264783 0 0 0.264783
right -0.802341 -9.3265e-16 0 -0.802341
bottom 0 0 0 0
frontAndBack 0 0 0 0
sum -0.537557 -9.3265e-16 0 -0.537557


Wall heat fluxes [W]
topAndBottom 0 0 0 0
left 0.853887 0 0 0.853887
right -0.850606 0 0 -0.850606
frontAndBack 0 0 0 0
sum 0.00328153 0 0 0.00328153

Time = 51

DILUPBiCG:  Solving for Ux, Initial residual = 0.00743963, Final residual = 5.88895e-05, No Iterations 1
DILUPBiCG:  Solving for Uy, Initial residual = 0.00957376, Final residual = 4.77898e-06, No Iterations 2
DICPCG:  Solving for p_rgh, Initial residual = 0.018774, Final residual = 0.000159843, No Iterations 6
time step continuity errors : sum local = 0.000833414, global = 1.64642e-16, cumulative = -1.90928e-15
DILUPBiCG:  Solving for epsilon, Initial residual = 0.00439581, Final residual = 2.65598e-06, No Iterations 2
DILUPBiCG:  Solving for k, Initial residual = 0.0134097, Final residual = 3.461e-05, No Iterations 2
BiCG:  Solving for T+T, Initial residual = 0.00106451, Final residual = 4.85834e-05, No Iterations 3
ExecutionTime = 0.11 s



Wall heat fluxes [W]
movingWall 0 0 0 0
left 0.268423 -1.10995e-15 0 0.268423
right -0.7988 1.20841e-14 0 -0.7988
bottom 0 0 0 0
frontAndBack 0 0 0 0
sum -0.530378 1.09742e-14 0 -0.530378


Wall heat fluxes [W]
topAndBottom 0 0 0 0
left 1.20522 0 0 1.20522
right -0.839715 0 0 -0.839715
frontAndBack 0 0 0 0
sum 0.365504 0 0 0.365504

Time = 52

DILUPBiCG:  Solving for Ux, Initial residual = 0.00716873, Final residual = 5.80121e-05, No Iterations 1
DILUPBiCG:  Solving for Uy, Initial residual = 0.00893656, Final residual = 4.57313e-08, No Iterations 3
DICPCG:  Solving for p_rgh, Initial residual = 0.0185366, Final residual = 0.000101706, No Iterations 10
time step continuity errors : sum local = 0.000334423, global = 1.88465e-16, cumulative = -1.72081e-15
DILUPBiCG:  Solving for epsilon, Initial residual = 0.00418142, Final residual = 2.43026e-06, No Iterations 2
DILUPBiCG:  Solving for k, Initial residual = 0.012598, Final residual = 3.28666e-05, No Iterations 2
BiCG:  Solving for T+T, Initial residual = 0.00103973, Final residual = 8.18306e-05, No Iterations 1
ExecutionTime = 0.11 s



Wall heat fluxes [W]
movingWall 0 0 0 0
left 0.272096 -3.15643e-15 0 0.272096
right -0.796379 1.58058e-14 0 -0.796379
bottom 0 0 0 0
frontAndBack 0 0 0 0
sum -0.524284 1.26493e-14 0 -0.524284


Wall heat fluxes [W]
topAndBottom 0 0 0 0
left 0.814513 0 0 0.814513
right -0.838813 0 0 -0.838813
frontAndBack 0 0 0 0
sum -0.0243005 0 0 -0.0243005

Time = 53

DILUPBiCG:  Solving for Ux, Initial residual = 0.00642594, Final residual = 5.30729e-05, No Iterations 1
DILUPBiCG:  Solving for Uy, Initial residual = 0.00879107, Final residual = 5.12829e-06, No Iterations 2
DICPCG:  Solving for p_rgh, Initial residual = 0.0188771, Final residual = 0.000182267, No Iterations 9
time step continuity errors : sum local = 0.000603927, global = -1.61466e-16, cumulative = -1.88228e-15
DILUPBiCG:  Solving for epsilon, Initial residual = 0.00397983, Final residual = 2.19244e-06, No Iterations 2
DILUPBiCG:  Solving for k, Initial residual = 0.0118071, Final residual = 3.15998e-05, No Iterations 2
BiCG:  Solving for T+T, Initial residual = 0.00103851, Final residual = 0.000100307, No Iterations 1
ExecutionTime = 0.11 s



Wall heat fluxes [W]
movingWall 0 0 0 0
left 0.276009 1.10995e-15 0 0.276009
right -0.793001 -1.02259e-14 0 -0.793001
bottom 0 0 0 0
frontAndBack 0 0 0 0
sum -0.516992 -9.11599e-15 0 -0.516992


Wall heat fluxes [W]
topAndBottom 0 0 0 0
left 0.840747 0 0 0.840747
right -0.837846 0 0 -0.837846
frontAndBack 0 0 0 0
sum 0.00290088 0 0 0.00290088

Time = 54

DILUPBiCG:  Solving for Ux, Initial residual = 0.00699779, Final residual = 5.5932e-05, No Iterations 1
DILUPBiCG:  Solving for Uy, Initial residual = 0.00868144, Final residual = 6.13419e-06, No Iterations 2
DICPCG:  Solving for p_rgh, Initial residual = 0.0188935, Final residual = 0.000157796, No Iterations 6
time step continuity errors : sum local = 0.00083011, global = -1.95876e-17, cumulative = -1.90187e-15
DILUPBiCG:  Solving for epsilon, Initial residual = 0.00376377, Final residual = 1.98206e-06, No Iterations 2
DILUPBiCG:  Solving for k, Initial residual = 0.0109935, Final residual = 3.04546e-05, No Iterations 2
BiCG:  Solving for T+T, Initial residual = 0.00103476, Final residual = 0.000102379, No Iterations 2
ExecutionTime = 0.11 s



Wall heat fluxes [W]
movingWall 0 0 0 0
left 0.280183 3.12174e-16 0 0.280183
right -0.790058 -1.86367e-15 0 -0.790058
bottom 0 0 0 0
frontAndBack 0 0 0 0
sum -0.509875 -1.55149e-15 0 -0.509875


Wall heat fluxes [W]
topAndBottom 0 0 0 0
left 0.925165 0 0 0.925165
right -0.834629 0 0 -0.834629
frontAndBack 0 0 0 0
sum 0.0905365 0 0 0.0905365

Time = 55

DILUPBiCG:  Solving for Ux, Initial residual = 0.00674511, Final residual = 5.43814e-05, No Iterations 1
DILUPBiCG:  Solving for Uy, Initial residual = 0.00773812, Final residual = 1.19398e-07, No Iterations 3
DICPCG:  Solving for p_rgh, Initial residual = 0.0177509, Final residual = 0.000174652, No Iterations 9
time step continuity errors : sum local = 0.000582505, global = 7.54389e-17, cumulative = -1.82643e-15
DILUPBiCG:  Solving for epsilon, Initial residual = 0.00356413, Final residual = 1.8269e-06, No Iterations 2
DILUPBiCG:  Solving for k, Initial residual = 0.0103438, Final residual = 3.05215e-05, No Iterations 2
BiCG:  Solving for T+T, Initial residual = 0.00102519, Final residual = 0.000100144, No Iterations 1
ExecutionTime = 0.12 s



Wall heat fluxes [W]
movingWall 0 0 0 0
left 0.28443 -1.38744e-16 0 0.28443
right -0.787309 1.85716e-15 0 -0.787309
bottom 0 0 0 0
frontAndBack 0 0 0 0
sum -0.502879 1.71841e-15 0 -0.502879


Wall heat fluxes [W]
topAndBottom 0 0 0 0
left 0.811827 0 0 0.811827
right -0.833713 0 0 -0.833713
frontAndBack 0 0 0 0
sum -0.0218862 0 0 -0.0218862

Time = 56

DILUPBiCG:  Solving for Ux, Initial residual = 0.00647956, Final residual = 5.25474e-05, No Iterations 1
DILUPBiCG:  Solving for Uy, Initial residual = 0.00803192, Final residual = 9.25672e-06, No Iterations 2
DICPCG:  Solving for p_rgh, Initial residual = 0.0179055, Final residual = 0.000113972, No Iterations 9
time step continuity errors : sum local = 0.000390554, global = -2.65757e-16, cumulative = -2.09218e-15
DILUPBiCG:  Solving for epsilon, Initial residual = 0.00341372, Final residual = 1.65755e-06, No Iterations 2
DILUPBiCG:  Solving for k, Initial residual = 0.00973872, Final residual = 3.09674e-05, No Iterations 2
BiCG:  Solving for T+T, Initial residual = 0.00102025, Final residual = 3.51991e-05, No Iterations 3
ExecutionTime = 0.12 s



Wall heat fluxes [W]
movingWall 0 0 0 0
left 0.288905 3.26048e-15 0 0.288905
right -0.784431 -1.95276e-14 0 -0.784431
bottom 0 0 0 0
frontAndBack 0 0 0 0
sum -0.495526 -1.62671e-14 0 -0.495526


Wall heat fluxes [W]
topAndBottom 0 0 0 0
left 1.18101 0 0 1.18101
right -0.823609 0 0 -0.823609
frontAndBack 0 0 0 0
sum 0.357396 0 0 0.357396

Time = 57

DILUPBiCG:  Solving for Ux, Initial residual = 0.00649155, Final residual = 5.16847e-05, No Iterations 1
DILUPBiCG:  Solving for Uy, Initial residual = 0.00753686, Final residual = 2.89545e-05, No Iterations 2
DICPCG:  Solving for p_rgh, Initial residual = 0.0172427, Final residual = 0.000129526, No Iterations 6
time step continuity errors : sum local = 0.00066932, global = 1.79597e-16, cumulative = -1.91259e-15
DILUPBiCG:  Solving for epsilon, Initial residual = 0.00324614, Final residual = 1.53915e-06, No Iterations 2
DILUPBiCG:  Solving for k, Initial residual = 0.00914953, Final residual = 3.42794e-05, No Iterations 2
BiCG:  Solving for T+T, Initial residual = 0.000993467, Final residual = 8.01573e-05, No Iterations 1
ExecutionTime = 0.12 s



Wall heat fluxes [W]
movingWall 0 0 0 0
left 0.293531 0 0 0.293531
right -0.78272 9.30395e-15 0 -0.78272
bottom 0 0 0 0
frontAndBack 0 0 0 0
sum -0.489189 9.30395e-15 0 -0.489189


Wall heat fluxes [W]
topAndBottom 0 0 0 0
left 0.795783 0 0 0.795783
right -0.822659 0 0 -0.822659
frontAndBack 0 0 0 0
sum -0.0268767 0 0 -0.0268767

Time = 58

DILUPBiCG:  Solving for Ux, Initial residual = 0.00573465, Final residual = 4.88121e-05, No Iterations 1
DILUPBiCG:  Solving for Uy, Initial residual = 0.00789247, Final residual = 1.33217e-05, No Iterations 2
DICPCG:  Solving for p_rgh, Initial residual = 0.0171213, Final residual = 0.000131721, No Iterations 9
time step continuity errors : sum local = 0.000473682, global = -2.42596e-16, cumulative = -2.15518e-15
DILUPBiCG:  Solving for epsilon, Initial residual = 0.00298326, Final residual = 1.45864e-06, No Iterations 2
DILUPBiCG:  Solving for k, Initial residual = 0.00851596, Final residual = 3.90543e-05, No Iterations 2
BiCG:  Solving for T+T, Initial residual = 0.000991212, Final residual = 9.70608e-05, No Iterations 1
ExecutionTime = 0.12 s



Wall heat fluxes [W]
movingWall 0 0 0 0
left 0.298252 -2.77488e-15 0 0.298252
right -0.780051 -9.30269e-15 0 -0.780051
bottom 0 0 0 0
frontAndBack 0 0 0 0
sum -0.481799 -1.20776e-14 0 -0.481799


Wall heat fluxes [W]
topAndBottom 0 0 0 0
left 0.825268 0 0 0.825268
right -0.821678 0 0 -0.821678
frontAndBack 0 0 0 0
sum 0.00359052 0 0 0.00359052

Time = 59

DILUPBiCG:  Solving for Ux, Initial residual = 0.0063249, Final residual = 5.14762e-05, No Iterations 1
DILUPBiCG:  Solving for Uy, Initial residual = 0.00737882, Final residual = 5.93944e-06, No Iterations 2
DICPCG:  Solving for p_rgh, Initial residual = 0.0168691, Final residual = 0.000143113, No Iterations 6
time step continuity errors : sum local = 0.000722234, global = 3.79047e-16, cumulative = -1.77614e-15
DILUPBiCG:  Solving for epsilon, Initial residual = 0.00280389, Final residual = 1.41488e-06, No Iterations 2
DILUPBiCG:  Solving for k, Initial residual = 0.00799254, Final residual = 5.42011e-05, No Iterations 2
BiCG:  Solving for T+T, Initial residual = 0.000984266, Final residual = 9.11573e-05, No Iterations 2
ExecutionTime = 0.12 s



Wall heat fluxes [W]
movingWall 0 0 0 0
left 0.303098 -4.43981e-15 0 0.303098
right -0.777737 2.79106e-14 0 -0.777737
bottom 0 0 0 0
frontAndBack 0 0 0 0
sum -0.474639 2.34708e-14 0 -0.474639


Wall heat fluxes [W]
topAndBottom 0 0 0 0
left 0.888722 0 0 0.888722
right -0.818748 0 0 -0.818748
frontAndBack 0 0 0 0
sum 0.0699736 0 0 0.0699736

Time = 60

DILUPBiCG:  Solving for Ux, Initial residual = 0.00604769, Final residual = 4.94429e-05, No Iterations 1
DILUPBiCG:  Solving for Uy, Initial residual = 0.00623201, Final residual = 2.32774e-06, No Iterations 2
DICPCG:  Solving for p_rgh, Initial residual = 0.0158125, Final residual = 7.02043e-05, No Iterations 9
time step continuity errors : sum local = 0.000247507, global = 8.40416e-17, cumulative = -1.69209e-15
DILUPBiCG:  Solving for epsilon, Initial residual = 0.00263501, Final residual = 1.40332e-06, No Iterations 2
DILUPBiCG:  Solving for k, Initial residual = 0.007516, Final residual = 8.52643e-07, No Iterations 3
BiCG:  Solving for T+T, Initial residual = 0.000970367, Final residual = 9.51855e-05, No Iterations 1
ExecutionTime = 0.12 s



Wall heat fluxes [W]
movingWall 0 0 0 0
left 0.307998 -5.54976e-16 0 0.307998
right -0.775559 4.65695e-15 0 -0.775559
bottom 0 0 0 0
frontAndBack 0 0 0 0
sum -0.467561 4.10197e-15 0 -0.467561


Wall heat fluxes [W]
topAndBottom 0 0 0 0
left 0.800015 0 0 0.800015
right -0.817867 0 0 -0.817867
frontAndBack 0 0 0 0
sum -0.0178518 0 0 -0.0178518

Time = 61

DILUPBiCG:  Solving for Ux, Initial residual = 0.0057971, Final residual = 4.85217e-05, No Iterations 1
DILUPBiCG:  Solving for Uy, Initial residual = 0.00649849, Final residual = 2.87758e-06, No Iterations 2
DICPCG:  Solving for p_rgh, Initial residual = 0.0157023, Final residual = 0.000147659, No Iterations 5
time step continuity errors : sum local = 0.000703319, global = 2.51463e-17, cumulative = -1.66695e-15
DILUPBiCG:  Solving for epsilon, Initial residual = 0.00249052, Final residual = 1.36104e-06, No Iterations 2
DILUPBiCG:  Solving for k, Initial residual = 0.00706361, Final residual = 8.04875e-07, No Iterations 3
BiCG:  Solving for T+T, Initial residual = 0.000962612, Final residual = 9.44737e-05, No Iterations 2
ExecutionTime = 0.13 s



Wall heat fluxes [W]
movingWall 0 0 0 0
left 0.312929 1.80367e-15 0 0.312929
right -0.773361 -1.86285e-15 0 -0.773361
bottom 0 0 0 0
frontAndBack 0 0 0 0
sum -0.460432 -5.91766e-17 0 -0.460432


Wall heat fluxes [W]
topAndBottom 0 0 0 0
left 0.892628 0 0 0.892628
right -0.815086 0 0 -0.815086
frontAndBack 0 0 0 0
sum 0.0775424 0 0 0.0775424

Time = 62

DILUPBiCG:  Solving for Ux, Initial residual = 0.00571562, Final residual = 4.69027e-05, No Iterations 1
DILUPBiCG:  Solving for Uy, Initial residual = 0.00569088, Final residual = 1.34273e-06, No Iterations 2
DICPCG:  Solving for p_rgh, Initial residual = 0.0142959, Final residual = 7.74149e-05, No Iterations 10
time step continuity errors : sum local = 0.000270706, global = 1.95347e-16, cumulative = -1.4716e-15
DILUPBiCG:  Solving for epsilon, Initial residual = 0.0023125, Final residual = 1.32099e-06, No Iterations 2
DILUPBiCG:  Solving for k, Initial residual = 0.00660789, Final residual = 7.483e-07, No Iterations 3
BiCG:  Solving for T+T, Initial residual = 0.000945535, Final residual = 8.66825e-05, No Iterations 2
ExecutionTime = 0.13 s



Wall heat fluxes [W]
movingWall 0 0 0 0
left 0.317826 -2.77488e-16 0 0.317826
right -0.771462 1.11677e-14 0 -0.771462
bottom 0 0 0 0
frontAndBack 0 0 0 0
sum -0.453635 1.08902e-14 0 -0.453635


Wall heat fluxes [W]
topAndBottom 0 0 0 0
left 0.86348 0 0 0.86348
right -0.812478 0 0 -0.812478
frontAndBack 0 0 0 0
sum 0.0510018 0 0 0.0510018

Time = 63

DILUPBiCG:  Solving for Ux, Initial residual = 0.00539064, Final residual = 4.49633e-05, No Iterations 1
DILUPBiCG:  Solving for Uy, Initial residual = 0.00547792, Final residual = 1.1203e-06, No Iterations 2
DICPCG:  Solving for p_rgh, Initial residual = 0.0130539, Final residual = 0.000110704, No Iterations 5
time step continuity errors : sum local = 0.000534323, global = -6.74979e-17, cumulative = -1.5391e-15
DILUPBiCG:  Solving for epsilon, Initial residual = 0.00219666, Final residual = 1.28481e-06, No Iterations 2
DILUPBiCG:  Solving for k, Initial residual = 0.00619563, Final residual = 6.87288e-07, No Iterations 3
BiCG:  Solving for T+T, Initial residual = 0.000935643, Final residual = 8.65011e-05, No Iterations 2
ExecutionTime = 0.13 s



Wall heat fluxes [W]
movingWall 0 0 0 0
left 0.322746 -1.38744e-16 0 0.322746
right -0.769487 -3.72536e-15 0 -0.769487
bottom 0 0 0 0
frontAndBack 0 0 0 0
sum -0.446741 -3.86411e-15 0 -0.446741


Wall heat fluxes [W]
topAndBottom 0 0 0 0
left 0.866605 0 0 0.866605
right -0.809871 0 0 -0.809871
frontAndBack 0 0 0 0
sum 0.0567337 0 0 0.0567337

Time = 64

DILUPBiCG:  Solving for Ux, Initial residual = 0.00524865, Final residual = 4.43708e-05, No Iterations 1
DILUPBiCG:  Solving for Uy, Initial residual = 0.00557405, Final residual = 1.0449e-06, No Iterations 2
DICPCG:  Solving for p_rgh, Initial residual = 0.0120886, Final residual = 8.23466e-05, No Iterations 10
time step continuity errors : sum local = 0.000290759, global = 3.28225e-17, cumulative = -1.50628e-15
DILUPBiCG:  Solving for epsilon, Initial residual = 0.00210583, Final residual = 1.24983e-06, No Iterations 2
DILUPBiCG:  Solving for k, Initial residual = 0.00588192, Final residual = 6.4678e-07, No Iterations 3
BiCG:  Solving for T+T, Initial residual = 0.000923349, Final residual = 8.48815e-05, No Iterations 2
ExecutionTime = 0.13 s



Wall heat fluxes [W]
movingWall 0 0 0 0
left 0.327591 6.9372e-16 0 0.327591
right -0.767519 -9.31054e-16 0 -0.767519
bottom 0 0 0 0
frontAndBack 0 0 0 0
sum -0.439929 -2.37334e-16 0 -0.439929


Wall heat fluxes [W]
topAndBottom 0 0 0 0
left 0.860508 0 0 0.860508
right -0.807347 0 0 -0.807347
frontAndBack 0 0 0 0
sum 0.0531613 0 0 0.0531613

Time = 65

DILUPBiCG:  Solving for Ux, Initial residual = 0.0051266, Final residual = 4.3282e-05, No Iterations 1
DILUPBiCG:  Solving for Uy, Initial residual = 0.00560539, Final residual = 9.95346e-07, No Iterations 2
DICPCG:  Solving for p_rgh, Initial residual = 0.011214, Final residual = 9.96414e-05, No Iterations 5
time step continuity errors : sum local = 0.000474032, global = 1.67289e-16, cumulative = -1.33899e-15
DILUPBiCG:  Solving for epsilon, Initial residual = 0.00199189, Final residual = 1.24075e-06, No Iterations 2
DILUPBiCG:  Solving for k, Initial residual = 0.00566515, Final residual = 6.73096e-07, No Iterations 3
BiCG:  Solving for T+T, Initial residual = 0.000913233, Final residual = 8.41008e-05, No Iterations 2
ExecutionTime = 0.13 s



Wall heat fluxes [W]
movingWall 0 0 0 0
left 0.332387 -2.15053e-15 0 0.332387
right -0.765517 1.1173e-14 0 -0.765517
bottom 0 0 0 0
frontAndBack 0 0 0 0
sum -0.43313 9.02243e-15 0 -0.43313


Wall heat fluxes [W]
topAndBottom 0 0 0 0
left 0.857856 0 0 0.857856
right -0.804868 0 0 -0.804868
frontAndBack 0 0 0 0
sum 0.0529882 0 0 0.0529882

Time = 66

DILUPBiCG:  Solving for Ux, Initial residual = 0.0050134, Final residual = 4.33405e-05, No Iterations 1
DILUPBiCG:  Solving for Uy, Initial residual = 0.00553723, Final residual = 9.52262e-07, No Iterations 2
DICPCG:  Solving for p_rgh, Initial residual = 0.0105005, Final residual = 7.0215e-05, No Iterations 10
time step continuity errors : sum local = 0.000249143, global = 1.50348e-16, cumulative = -1.18864e-15
DILUPBiCG:  Solving for epsilon, Initial residual = 0.00191973, Final residual = 1.26427e-06, No Iterations 2
DILUPBiCG:  Solving for k, Initial residual = 0.00547849, Final residual = 7.65022e-07, No Iterations 3
BiCG:  Solving for T+T, Initial residual = 0.00090163, Final residual = 8.34242e-05, No Iterations 2
ExecutionTime = 0.14 s



Wall heat fluxes [W]
movingWall 0 0 0 0
left 0.337063 6.24348e-16 0 0.337063
right -0.76349 6.51756e-15 0 -0.76349
bottom 0 0 0 0
frontAndBack 0 0 0 0
sum -0.426426 7.14191e-15 0 -0.426426


Wall heat fluxes [W]
topAndBottom 0 0 0 0
left 0.854821 0 0 0.854821
right -0.802426 0 0 -0.802426
frontAndBack 0 0 0 0
sum 0.0523943 0 0 0.0523943

Time = 67

DILUPBiCG:  Solving for Ux, Initial residual = 0.00492617, Final residual = 4.30074e-05, No Iterations 1
DILUPBiCG:  Solving for Uy, Initial residual = 0.00546002, Final residual = 9.03851e-07, No Iterations 2
DICPCG:  Solving for p_rgh, Initial residual = 0.00984227, Final residual = 8.56446e-05, No Iterations 5
time step continuity errors : sum local = 0.00039969, global = 3.06785e-16, cumulative = -8.81854e-16
DILUPBiCG:  Solving for epsilon, Initial residual = 0.00189812, Final residual = 1.41292e-06, No Iterations 2
DILUPBiCG:  Solving for k, Initial residual = 0.00532171, Final residual = 8.7987e-07, No Iterations 3
BiCG:  Solving for T+T, Initial residual = 0.000891599, Final residual = 8.30619e-05, No Iterations 2
ExecutionTime = 0.14 s



Wall heat fluxes [W]
movingWall 0 0 0 0
left 0.34164 1.38744e-15 0 0.34164
right -0.761429 1.3034e-14 0 -0.761429
bottom 0 0 0 0
frontAndBack 0 0 0 0
sum -0.419789 1.44214e-14 0 -0.419789


Wall heat fluxes [W]
topAndBottom 0 0 0 0
left 0.852281 0 0 0.852281
right -0.800012 0 0 -0.800012
frontAndBack 0 0 0 0
sum 0.0522691 0 0 0.0522691

Time = 68

DILUPBiCG:  Solving for Ux, Initial residual = 0.00483439, Final residual = 4.36381e-05, No Iterations 1
DILUPBiCG:  Solving for Uy, Initial residual = 0.00535948, Final residual = 8.57021e-07, No Iterations 2
DICPCG:  Solving for p_rgh, Initial residual = 0.0092902, Final residual = 5.26105e-05, No Iterations 10
time step continuity errors : sum local = 0.000187506, global = 1.10379e-16, cumulative = -7.71475e-16
DILUPBiCG:  Solving for epsilon, Initial residual = 0.00196152, Final residual = 1.68302e-06, No Iterations 2
DILUPBiCG:  Solving for k, Initial residual = 0.00518482, Final residual = 9.60069e-07, No Iterations 3
BiCG:  Solving for T+T, Initial residual = 0.000880609, Final residual = 8.29136e-05, No Iterations 2
ExecutionTime = 0.14 s



Wall heat fluxes [W]
movingWall 0 0 0 0
left 0.346064 4.7173e-15 0 0.346064
right -0.759341 -2.79381e-15 0 -0.759341
bottom 0 0 0 0
frontAndBack 0 0 0 0
sum -0.413277 1.92348e-15 0 -0.413277


Wall heat fluxes [W]
topAndBottom 0 0 0 0
left 0.849979 0 0 0.849979
right -0.797614 0 0 -0.797614
frontAndBack 0 0 0 0
sum 0.0523647 0 0 0.0523647

Time = 69

DILUPBiCG:  Solving for Ux, Initial residual = 0.00476101, Final residual = 4.36686e-05, No Iterations 1
DILUPBiCG:  Solving for Uy, Initial residual = 0.00526163, Final residual = 8.05851e-07, No Iterations 2
DICPCG:  Solving for p_rgh, Initial residual = 0.00879889, Final residual = 7.14929e-05, No Iterations 5
time step continuity errors : sum local = 0.000338502, global = -1.21761e-17, cumulative = -7.83651e-16
DILUPBiCG:  Solving for epsilon, Initial residual = 0.00201443, Final residual = 2.1446e-06, No Iterations 2
DILUPBiCG:  Solving for k, Initial residual = 0.00509934, Final residual = 1.01185e-06, No Iterations 3
BiCG:  Solving for T+T, Initial residual = 0.000870827, Final residual = 8.29703e-05, No Iterations 2
ExecutionTime = 0.14 s



Wall heat fluxes [W]
movingWall 0 0 0 0
left 0.350356 -1.66493e-15 0 0.350356
right -0.757227 9.31327e-16 0 -0.757227
bottom 0 0 0 0
frontAndBack 0 0 0 0
sum -0.406872 -7.33601e-16 0 -0.406872


Wall heat fluxes [W]
topAndBottom 0 0 0 0
left 0.847792 0 0 0.847792
right -0.795228 0 0 -0.795228
frontAndBack 0 0 0 0
sum 0.0525639 0 0 0.0525639

Time = 70

DILUPBiCG:  Solving for Ux, Initial residual = 0.00468351, Final residual = 4.42933e-05, No Iterations 1
DILUPBiCG:  Solving for Uy, Initial residual = 0.00511733, Final residual = 7.68583e-07, No Iterations 2
DICPCG:  Solving for p_rgh, Initial residual = 0.00842269, Final residual = 3.77101e-05, No Iterations 10
time step continuity errors : sum local = 0.000135018, global = -1.48495e-16, cumulative = -9.32147e-16
DILUPBiCG:  Solving for epsilon, Initial residual = 0.00206687, Final residual = 2.91132e-06, No Iterations 2
DILUPBiCG:  Solving for k, Initial residual = 0.00509608, Final residual = 1.0332e-06, No Iterations 3
BiCG:  Solving for T+T, Initial residual = 0.000860439, Final residual = 8.32059e-05, No Iterations 2
ExecutionTime = 0.14 s



Wall heat fluxes [W]
movingWall 0 0 0 0
left 0.354478 1.38744e-16 0 0.354478
right -0.755095 -9.31342e-15 0 -0.755095
bottom 0 0 0 0
frontAndBack 0 0 0 0
sum -0.400617 -9.17468e-15 0 -0.400617


Wall heat fluxes [W]
topAndBottom 0 0 0 0
left 0.845754 0 0 0.845754
right -0.792847 0 0 -0.792847
frontAndBack 0 0 0 0
sum 0.0529077 0 0 0.0529077

Time = 71

DILUPBiCG:  Solving for Ux, Initial residual = 0.00460458, Final residual = 4.40139e-05, No Iterations 1
DILUPBiCG:  Solving for Uy, Initial residual = 0.00496681, Final residual = 7.38327e-07, No Iterations 2
DICPCG:  Solving for p_rgh, Initial residual = 0.00807114, Final residual = 8.03204e-05, No Iterations 4
[...]
DILUPBiCG:  Solving for epsilon, Initial residual = 1.27169e-15, Final residual = 1.22176e-17, No Iterations 2
DILUPBiCG:  Solving for k, Initial residual = 2.76329e-15, Final residual = 8.98071e-18, No Iterations 2
BiCG:  Solving for T+T, Initial residual = 4.35654e-15, Final residual = 2.56346e-16, No Iterations 2
ExecutionTime = 3.71 s



Wall heat fluxes [W]
movingWall 0 0 0 0
left 0.599712 1.1377e-14 0 0.599712
right -0.599712 1.22049e-14 0 -0.599712
bottom 0 0 0 0
frontAndBack 0 0 0 0
sum -2.18603e-13 2.35819e-14 0 -1.95021e-13


Wall heat fluxes [W]
topAndBottom 0 0 0 0
left 0.599712 0 0 0.599712
right -0.599712 0 0 -0.599712
frontAndBack 0 0 0 0
sum -2.20157e-13 0 0 -2.20157e-13

Time = 1984

DILUPBiCG:  Solving for Ux, Initial residual = 2.64626e-15, Final residual = 1.63375e-17, No Iterations 1
DILUPBiCG:  Solving for Uy, Initial residual = 2.60466e-15, Final residual = 2.49575e-17, No Iterations 1
DICPCG:  Solving for p_rgh, Initial residual = 9.70148e-15, Final residual = 6.29822e-17, No Iterations 10
time step continuity errors : sum local = 3.94188e-15, global = 1.12232e-16, cumulative = -1.47005e-14
DILUPBiCG:  Solving for epsilon, Initial residual = 1.42873e-15, Final residual = 5.98112e-18, No Iterations 2
DILUPBiCG:  Solving for k, Initial residual = 3.02161e-15, Final residual = 7.23895e-18, No Iterations 2
BiCG:  Solving for T+T, Initial residual = 4.18656e-15, Final residual = 1.92189e-16, No Iterations 3
ExecutionTime = 3.71 s



Wall heat fluxes [W]
movingWall 0 0 0 0
left 0.599712 3.05237e-15 0 0.599712
right -0.599712 1.28776e-18 0 -0.599712
bottom 0 0 0 0
frontAndBack 0 0 0 0
sum -2.15272e-13 3.05366e-15 0 -2.12219e-13


Wall heat fluxes [W]
topAndBottom 0 0 0 0
left 0.599712 0 0 0.599712
right -0.599712 0 0 -0.599712
frontAndBack 0 0 0 0
sum -1.51879e-13 0 0 -1.51879e-13

Time = 1985

DILUPBiCG:  Solving for Ux, Initial residual = 2.36754e-15, Final residual = 1.94623e-17, No Iterations 1
DILUPBiCG:  Solving for Uy, Initial residual = 2.28346e-15, Final residual = 2.76647e-19, No Iterations 2
DICPCG:  Solving for p_rgh, Initial residual = 7.13485e-15, Final residual = 4.80912e-17, No Iterations 10
time step continuity errors : sum local = 3.72377e-15, global = -7.94093e-17, cumulative = -1.47799e-14
DILUPBiCG:  Solving for epsilon, Initial residual = 1.18349e-15, Final residual = 3.46744e-18, No Iterations 2
DILUPBiCG:  Solving for k, Initial residual = 2.7429e-15, Final residual = 8.24594e-18, No Iterations 2
BiCG:  Solving for T+T, Initial residual = 4.55925e-15, Final residual = 3.87184e-16, No Iterations 2
ExecutionTime = 3.71 s



Wall heat fluxes [W]
movingWall 0 0 0 0
left 0.599712 -1.0822e-14 0 0.599712
right -0.599712 1.12634e-14 0 -0.599712
bottom 0 0 0 0
frontAndBack 0 0 0 0
sum -2.12608e-13 4.41373e-16 0 -2.12166e-13


Wall heat fluxes [W]
topAndBottom 0 0 0 0
left 0.599712 0 0 0.599712
right -0.599712 0 0 -0.599712
frontAndBack 0 0 0 0
sum -3.80806e-14 0 0 -3.80806e-14

Time = 1986

DILUPBiCG:  Solving for Ux, Initial residual = 2.44506e-15, Final residual = 2.37513e-17, No Iterations 1
DILUPBiCG:  Solving for Uy, Initial residual = 2.70299e-15, Final residual = 5.73144e-19, No Iterations 2
DICPCG:  Solving for p_rgh, Initial residual = 8.77348e-15, Final residual = 5.69045e-17, No Iterations 10
time step continuity errors : sum local = 4.78891e-15, global = -1.05879e-18, cumulative = -1.4781e-14
DILUPBiCG:  Solving for epsilon, Initial residual = 1.39193e-15, Final residual = 5.21743e-18, No Iterations 2
DILUPBiCG:  Solving for k, Initial residual = 3.02371e-15, Final residual = 5.27783e-18, No Iterations 2
BiCG:  Solving for T+T, Initial residual = 4.10553e-15, Final residual = 1.85063e-16, No Iterations 2
ExecutionTime = 3.71 s



Wall heat fluxes [W]
movingWall 0 0 0 0
left 0.599712 1.52618e-15 0 0.599712
right -0.599712 -1.87565e-15 0 -0.599712
bottom 0 0 0 0
frontAndBack 0 0 0 0
sum -2.09832e-13 -3.49467e-16 0 -2.10182e-13


Wall heat fluxes [W]
topAndBottom 0 0 0 0
left 0.599712 0 0 0.599712
right -0.599712 0 0 -0.599712
frontAndBack 0 0 0 0
sum -2.77001e-13 0 0 -2.77001e-13

Time = 1987

DILUPBiCG:  Solving for Ux, Initial residual = 3.01696e-15, Final residual = 2.08677e-17, No Iterations 1
DILUPBiCG:  Solving for Uy, Initial residual = 2.88272e-15, Final residual = 3.24593e-19, No Iterations 2
DICPCG:  Solving for p_rgh, Initial residual = 9.8397e-15, Final residual = 8.25574e-17, No Iterations 10
time step continuity errors : sum local = 3.40507e-15, global = 1.29173e-16, cumulative = -1.46518e-14
DILUPBiCG:  Solving for epsilon, Initial residual = 1.40697e-15, Final residual = 1.51866e-18, No Iterations 2
DILUPBiCG:  Solving for k, Initial residual = 2.99589e-15, Final residual = 8.29615e-18, No Iterations 2
BiCG:  Solving for T+T, Initial residual = 3.73312e-15, Final residual = 2.55257e-16, No Iterations 4
ExecutionTime = 3.71 s



Wall heat fluxes [W]
movingWall 0 0 0 0
left 0.599712 5.27227e-15 0 0.599712
right -0.599712 -1.8758e-15 0 -0.599712
bottom 0 0 0 0
frontAndBack 0 0 0 0
sum -2.06279e-13 3.39647e-15 0 -2.02883e-13


Wall heat fluxes [W]
topAndBottom 0 0 0 0
left 0.599712 0 0 0.599712
right -0.599712 0 0 -0.599712
frontAndBack 0 0 0 0
sum -9.47797e-13 0 0 -9.47797e-13

Time = 1988

DILUPBiCG:  Solving for Ux, Initial residual = 3.07413e-15, Final residual = 2.62015e-17, No Iterations 1
DILUPBiCG:  Solving for Uy, Initial residual = 3.3708e-15, Final residual = 9.36135e-19, No Iterations 2
DICPCG:  Solving for p_rgh, Initial residual = 1.13708e-14, Final residual = 5.01185e-17, No Iterations 10
time step continuity errors : sum local = 3.73806e-15, global = 2.5358e-16, cumulative = -1.43983e-14
DILUPBiCG:  Solving for epsilon, Initial residual = 1.2816e-15, Final residual = 2.02675e-18, No Iterations 2
DILUPBiCG:  Solving for k, Initial residual = 2.7951e-15, Final residual = 5.33707e-18, No Iterations 2
BiCG:  Solving for T+T, Initial residual = 4.47494e-15, Final residual = 4.25014e-16, No Iterations 3
ExecutionTime = 3.71 s



Wall heat fluxes [W]
movingWall 0 0 0 0
left 0.599712 6.10474e-15 0 0.599712
right -0.599712 2.81426e-15 0 -0.599712
bottom 0 0 0 0
frontAndBack 0 0 0 0
sum -2.00617e-13 8.91899e-15 0 -1.91698e-13


Wall heat fluxes [W]
topAndBottom 0 0 0 0
left 0.599712 0 0 0.599712
right -0.599712 0 0 -0.599712
frontAndBack 0 0 0 0
sum -6.52034e-13 0 0 -6.52034e-13

Time = 1989

DILUPBiCG:  Solving for Ux, Initial residual = 3.96026e-15, Final residual = 2.80321e-17, No Iterations 1
DILUPBiCG:  Solving for Uy, Initial residual = 3.37496e-15, Final residual = 7.38828e-19, No Iterations 2
DICPCG:  Solving for p_rgh, Initial residual = 1.05758e-14, Final residual = 6.59672e-17, No Iterations 11
time step continuity errors : sum local = 3.51519e-15, global = -3.07049e-17, cumulative = -1.4429e-14
DILUPBiCG:  Solving for epsilon, Initial residual = 1.16425e-15, Final residual = 2.61415e-20, No Iterations 3
DILUPBiCG:  Solving for k, Initial residual = 2.75891e-15, Final residual = 1.23559e-17, No Iterations 2
BiCG:  Solving for T+T, Initial residual = 4.46703e-15, Final residual = 2.56657e-16, No Iterations 3
ExecutionTime = 3.72 s



Wall heat fluxes [W]
movingWall 0 0 0 0
left 0.599712 1.66493e-15 0 0.599712
right -0.599712 -5.63447e-15 0 -0.599712
bottom 0 0 0 0
frontAndBack 0 0 0 0
sum -1.96509e-13 -3.96954e-15 0 -2.00479e-13


Wall heat fluxes [W]
topAndBottom 0 0 0 0
left 0.599712 0 0 0.599712
right -0.599712 0 0 -0.599712
frontAndBack 0 0 0 0
sum 5.27356e-14 0 0 5.27356e-14

Time = 1990

DILUPBiCG:  Solving for Ux, Initial residual = 3.04191e-15, Final residual = 2.11751e-17, No Iterations 1
DILUPBiCG:  Solving for Uy, Initial residual = 2.98709e-15, Final residual = 2.70649e-17, No Iterations 1
DICPCG:  Solving for p_rgh, Initial residual = 8.47623e-15, Final residual = 7.11465e-17, No Iterations 10
time step continuity errors : sum local = 3.27696e-15, global = -7.83505e-17, cumulative = -1.45073e-14
DILUPBiCG:  Solving for epsilon, Initial residual = 1.14517e-15, Final residual = 7.59877e-18, No Iterations 2
DILUPBiCG:  Solving for k, Initial residual = 2.68423e-15, Final residual = 4.5443e-18, No Iterations 2
BiCG:  Solving for T+T, Initial residual = 4.36172e-15, Final residual = 2.96933e-16, No Iterations 3
ExecutionTime = 3.72 s



Wall heat fluxes [W]
movingWall 0 0 0 0
left 0.599712 -2.35865e-15 0 0.599712
right -0.599712 -2.40086e-18 0 -0.599712
bottom 0 0 0 0
frontAndBack 0 0 0 0
sum -1.94178e-13 -2.36105e-15 0 -1.96539e-13


Wall heat fluxes [W]
topAndBottom 0 0 0 0
left 0.599712 0 0 0.599712
right -0.599712 0 0 -0.599712
frontAndBack 0 0 0 0
sum -3.45168e-13 0 0 -3.45168e-13

Time = 1991

DILUPBiCG:  Solving for Ux, Initial residual = 3.12129e-15, Final residual = 2.38792e-17, No Iterations 1
DILUPBiCG:  Solving for Uy, Initial residual = 2.54144e-15, Final residual = 2.73037e-19, No Iterations 2
DICPCG:  Solving for p_rgh, Initial residual = 9.57716e-15, Final residual = 5.73735e-17, No Iterations 5
time step continuity errors : sum local = 2.96409e-15, global = 7.94093e-18, cumulative = -1.44994e-14
DILUPBiCG:  Solving for epsilon, Initial residual = 1.21638e-15, Final residual = 9.80968e-19, No Iterations 2
DILUPBiCG:  Solving for k, Initial residual = 2.63222e-15, Final residual = 1.2973e-17, No Iterations 2
BiCG:  Solving for T+T, Initial residual = 4.74559e-15, Final residual = 3.2744e-16, No Iterations 2
ExecutionTime = 3.72 s



Wall heat fluxes [W]
movingWall 0 0 0 0
left 0.599712 4.7173e-15 0 0.599712
right -0.599712 -7.51068e-15 0 -0.599712
bottom 0 0 0 0
frontAndBack 0 0 0 0
sum -1.90625e-13 -2.79338e-15 0 -1.93419e-13


Wall heat fluxes [W]
topAndBottom 0 0 0 0
left 0.599712 0 0 0.599712
right -0.599712 0 0 -0.599712
frontAndBack 0 0 0 0
sum -4.95159e-14 0 0 -4.95159e-14

Time = 1992

DILUPBiCG:  Solving for Ux, Initial residual = 3.29744e-15, Final residual = 2.57819e-17, No Iterations 1
DILUPBiCG:  Solving for Uy, Initial residual = 2.98223e-15, Final residual = 4.03374e-19, No Iterations 2
DICPCG:  Solving for p_rgh, Initial residual = 1.05332e-14, Final residual = 4.31699e-17, No Iterations 6
time step continuity errors : sum local = 3.1319e-15, global = 2.2764e-16, cumulative = -1.42717e-14
DILUPBiCG:  Solving for epsilon, Initial residual = 1.0438e-15, Final residual = 1.79096e-18, No Iterations 2
DILUPBiCG:  Solving for k, Initial residual = 2.40742e-15, Final residual = 7.35425e-18, No Iterations 2
BiCG:  Solving for T+T, Initial residual = 3.887e-15, Final residual = 2.28061e-16, No Iterations 3
ExecutionTime = 3.72 s



Wall heat fluxes [W]
movingWall 0 0 0 0
left 0.599712 1.38744e-16 0 0.599712
right -0.599712 1.31411e-14 0 -0.599712
bottom 0 0 0 0
frontAndBack 0 0 0 0
sum -1.88183e-13 1.32798e-14 0 -1.74903e-13


Wall heat fluxes [W]
topAndBottom 0 0 0 0
left 0.599712 0 0 0.599712
right -0.599712 0 0 -0.599712
frontAndBack 0 0 0 0
sum -8.38218e-14 0 0 -8.38218e-14

Time = 1993

DILUPBiCG:  Solving for Ux, Initial residual = 2.16869e-15, Final residual = 1.36688e-17, No Iterations 1
DILUPBiCG:  Solving for Uy, Initial residual = 2.86028e-15, Final residual = 2.44079e-17, No Iterations 1
DICPCG:  Solving for p_rgh, Initial residual = 9.87988e-15, Final residual = 9.56693e-17, No Iterations 4
time step continuity errors : sum local = 2.57816e-15, global = -2.31875e-16, cumulative = -1.45036e-14
DILUPBiCG:  Solving for epsilon, Initial residual = 1.00548e-15, Final residual = 1.27073e-18, No Iterations 2
DILUPBiCG:  Solving for k, Initial residual = 2.35313e-15, Final residual = 2.73127e-18, No Iterations 3
BiCG:  Solving for T+T, Initial residual = 4.55516e-15, Final residual = 2.98286e-16, No Iterations 2
ExecutionTime = 3.72 s



Wall heat fluxes [W]
movingWall 0 0 0 0
left 0.599712 -2.77488e-15 0 0.599712
right -0.599712 -8.44765e-15 0 -0.599712
bottom 0 0 0 0
frontAndBack 0 0 0 0
sum -1.85851e-13 -1.12225e-14 0 -1.97074e-13


Wall heat fluxes [W]
topAndBottom 0 0 0 0
left 0.599712 0 0 0.599712
right -0.599712 0 0 -0.599712
frontAndBack 0 0 0 0
sum -2.67564e-14 0 0 -2.67564e-14

Time = 1994

DILUPBiCG:  Solving for Ux, Initial residual = 2.49279e-15, Final residual = 1.7922e-17, No Iterations 1
DILUPBiCG:  Solving for Uy, Initial residual = 2.49058e-15, Final residual = 1.22377e-17, No Iterations 2
DICPCG:  Solving for p_rgh, Initial residual = 9.39044e-15, Final residual = 6.90679e-17, No Iterations 11
time step continuity errors : sum local = 3.86935e-15, global = 4.15576e-16, cumulative = -1.4088e-14
DILUPBiCG:  Solving for epsilon, Initial residual = 1.06658e-15, Final residual = 6.95719e-20, No Iterations 3
DILUPBiCG:  Solving for k, Initial residual = 2.5061e-15, Final residual = 8.77555e-18, No Iterations 2
BiCG:  Solving for T+T, Initial residual = 4.02205e-15, Final residual = 2.58337e-16, No Iterations 3
ExecutionTime = 3.73 s



Wall heat fluxes [W]
movingWall 0 0 0 0
left 0.599712 5.82725e-15 0 0.599712
right -0.599712 1.40807e-14 0 -0.599712
bottom 0 0 0 0
frontAndBack 0 0 0 0
sum -1.83742e-13 1.9908e-14 0 -1.63834e-13


Wall heat fluxes [W]
topAndBottom 0 0 0 0
left 0.599712 0 0 0.599712
right -0.599712 0 0 -0.599712
frontAndBack 0 0 0 0
sum 4.04898e-13 0 0 4.04898e-13

Time = 1995

DILUPBiCG:  Solving for Ux, Initial residual = 2.29459e-15, Final residual = 1.13784e-18, No Iterations 2
DILUPBiCG:  Solving for Uy, Initial residual = 3.11781e-15, Final residual = 2.80903e-17, No Iterations 1
DICPCG:  Solving for p_rgh, Initial residual = 1.16271e-14, Final residual = 1.1542e-16, No Iterations 4
time step continuity errors : sum local = 3.4776e-15, global = 2.3664e-16, cumulative = -1.38514e-14
DILUPBiCG:  Solving for epsilon, Initial residual = 1.18486e-15, Final residual = 2.13276e-18, No Iterations 2
DILUPBiCG:  Solving for k, Initial residual = 2.53011e-15, Final residual = 9.19603e-18, No Iterations 2
BiCG:  Solving for T+T, Initial residual = 4.70821e-15, Final residual = 3.86912e-16, No Iterations 2
ExecutionTime = 3.73 s



Wall heat fluxes [W]
movingWall 0 0 0 0
left 0.599712 -4.16232e-16 0 0.599712
right -0.599712 1.22031e-14 0 -0.599712
bottom 0 0 0 0
frontAndBack 0 0 0 0
sum -1.82299e-13 1.17869e-14 0 -1.70512e-13


Wall heat fluxes [W]
topAndBottom 0 0 0 0
left 0.599712 0 0 0.599712
right -0.599712 0 0 -0.599712
frontAndBack 0 0 0 0
sum -6.29274e-13 0 0 -6.29274e-13

Time = 1996

DILUPBiCG:  Solving for Ux, Initial residual = 2.21011e-15, Final residual = 4.0974e-19, No Iterations 2
DILUPBiCG:  Solving for Uy, Initial residual = 2.72456e-15, Final residual = 4.5013e-19, No Iterations 2
DICPCG:  Solving for p_rgh, Initial residual = 1.02122e-14, Final residual = 5.3977e-17, No Iterations 10
time step continuity errors : sum local = 4.03664e-15, global = -8.62915e-17, cumulative = -1.39377e-14
DILUPBiCG:  Solving for epsilon, Initial residual = 1.13251e-15, Final residual = 5.41344e-18, No Iterations 2
DILUPBiCG:  Solving for k, Initial residual = 2.50877e-15, Final residual = 8.56127e-18, No Iterations 2
BiCG:  Solving for T+T, Initial residual = 3.887e-15, Final residual = 3.21995e-16, No Iterations 3
ExecutionTime = 3.73 s



Wall heat fluxes [W]
movingWall 0 0 0 0
left 0.599712 -1.10995e-15 0 0.599712
right -0.599712 -1.87895e-15 0 -0.599712
bottom 0 0 0 0
frontAndBack 0 0 0 0
sum -1.78524e-13 -2.9889e-15 0 -1.81513e-13


Wall heat fluxes [W]
topAndBottom 0 0 0 0
left 0.599712 0 0 0.599712
right -0.599712 0 0 -0.599712
frontAndBack 0 0 0 0
sum 2.12053e-13 0 0 2.12053e-13

Time = 1997

DILUPBiCG:  Solving for Ux, Initial residual = 3.23074e-15, Final residual = 2.64012e-17, No Iterations 1
DILUPBiCG:  Solving for Uy, Initial residual = 3.13149e-15, Final residual = 5.40053e-19, No Iterations 2
DICPCG:  Solving for p_rgh, Initial residual = 1.07169e-14, Final residual = 7.34787e-17, No Iterations 5
time step continuity errors : sum local = 2.58239e-15, global = -6.24687e-17, cumulative = -1.40001e-14
DILUPBiCG:  Solving for epsilon, Initial residual = 9.26963e-16, Final residual = 7.61552e-19, No Iterations 2
DILUPBiCG:  Solving for k, Initial residual = 2.23844e-15, Final residual = 7.04776e-18, No Iterations 2
BiCG:  Solving for T+T, Initial residual = 4.31343e-15, Final residual = 2.76519e-16, No Iterations 2
ExecutionTime = 3.73 s



Wall heat fluxes [W]
movingWall 0 0 0 0
left 0.599712 -7.07594e-15 0 0.599712
right -0.599712 1.12659e-14 0 -0.599712
bottom 0 0 0 0
frontAndBack 0 0 0 0
sum -1.7697e-13 4.18998e-15 0 -1.7278e-13


Wall heat fluxes [W]
topAndBottom 0 0 0 0
left 0.599712 0 0 0.599712
right -0.599712 0 0 -0.599712
frontAndBack 0 0 0 0
sum 1.89182e-13 0 0 1.89182e-13

Time = 1998

DILUPBiCG:  Solving for Ux, Initial residual = 1.84449e-15, Final residual = 1.25538e-17, No Iterations 1
DILUPBiCG:  Solving for Uy, Initial residual = 2.69706e-15, Final residual = 5.01052e-19, No Iterations 2
DICPCG:  Solving for p_rgh, Initial residual = 9.40069e-15, Final residual = 9.33543e-17, No Iterations 10
time step continuity errors : sum local = 4.5221e-15, global = -1.5776e-16, cumulative = -1.41579e-14
DILUPBiCG:  Solving for epsilon, Initial residual = 1.00968e-15, Final residual = 1.71877e-18, No Iterations 2
DILUPBiCG:  Solving for k, Initial residual = 2.33865e-15, Final residual = 8.24551e-18, No Iterations 2
BiCG:  Solving for T+T, Initial residual = 4.47494e-15, Final residual = 3.53921e-16, No Iterations 3
ExecutionTime = 3.73 s



Wall heat fluxes [W]
movingWall 0 0 0 0
left 0.599712 1.38744e-15 0 0.599712
right -0.599712 -1.12641e-14 0 -0.599712
bottom 0 0 0 0
frontAndBack 0 0 0 0
sum -1.75082e-13 -9.87668e-15 0 -1.84959e-13


Wall heat fluxes [W]
topAndBottom 0 0 0 0
left 0.599712 0 0 0.599712
right -0.599712 0 0 -0.599712
frontAndBack 0 0 0 0
sum -8.56648e-13 0 0 -8.56648e-13

Time = 1999

DILUPBiCG:  Solving for Ux, Initial residual = 1.96241e-15, Final residual = 1.54735e-17, No Iterations 1
DILUPBiCG:  Solving for Uy, Initial residual = 2.58686e-15, Final residual = 2.85097e-18, No Iterations 2
DICPCG:  Solving for p_rgh, Initial residual = 9.02996e-15, Final residual = 6.70893e-17, No Iterations 5
time step continuity errors : sum local = 3.03926e-15, global = -6.8292e-17, cumulative = -1.42262e-14
DILUPBiCG:  Solving for epsilon, Initial residual = 1.05457e-15, Final residual = 6.19387e-18, No Iterations 2
DILUPBiCG:  Solving for k, Initial residual = 2.29788e-15, Final residual = 1.0141e-17, No Iterations 2
BiCG:  Solving for T+T, Initial residual = 4.31016e-15, Final residual = 1.85953e-16, No Iterations 3
ExecutionTime = 3.73 s



Wall heat fluxes [W]
movingWall 0 0 0 0
left 0.599712 -1.10995e-15 0 0.599712
right -0.599712 -9.36263e-16 0 -0.599712
bottom 0 0 0 0
frontAndBack 0 0 0 0
sum -1.70197e-13 -2.04622e-15 0 -1.72243e-13


Wall heat fluxes [W]
topAndBottom 0 0 0 0
left 0.599712 0 0 0.599712
right -0.599712 0 0 -0.599712
frontAndBack 0 0 0 0
sum 2.68674e-13 0 0 2.68674e-13

Time = 2000

DILUPBiCG:  Solving for Ux, Initial residual = 4.37223e-15, Final residual = 3.04249e-17, No Iterations 1
DILUPBiCG:  Solving for Uy, Initial residual = 2.62341e-15, Final residual = 6.83047e-19, No Iterations 2
DICPCG:  Solving for p_rgh, Initial residual = 9.65412e-15, Final residual = 9.20128e-17, No Iterations 9
time step continuity errors : sum local = 4.17693e-15, global = -2.30816e-16, cumulative = -1.4457e-14
DILUPBiCG:  Solving for epsilon, Initial residual = 9.99915e-16, Final residual = 3.02124e-18, No Iterations 2
DILUPBiCG:  Solving for k, Initial residual = 2.32379e-15, Final residual = 7.82042e-18, No Iterations 2
BiCG:  Solving for T+T, Initial residual = 4.50414e-15, Final residual = 3.12572e-16, No Iterations 3
ExecutionTime = 3.74 s



Wall heat fluxes [W]
movingWall 0 0 0 0
left 0.599712 5.41102e-15 0 0.599712
right -0.599712 -2.25283e-14 0 -0.599712
bottom 0 0 0 0
frontAndBack 0 0 0 0
sum -1.68421e-13 -1.71173e-14 0 -1.85538e-13


Wall heat fluxes [W]
topAndBottom 0 0 0 0
left 0.599712 0 0 0.599712
right -0.599712 0 0 -0.599712
frontAndBack 0 0 0 0
sum 2.11831e-13 0 0 2.11831e-13

End

