/*---------------------------------------------------------------------------*\
| =========                 |                                                 |
| \\      /  F ield         | OpenFOAM Extend Project: Open source CFD        |
|  \\    /   O peration     | Version:  1.6-ext                               |
|   \\  /    A nd           | Web:      www.extend-project.de                 |
|    \\/     M anipulation  |                                                 |
\*---------------------------------------------------------------------------*/
Build  : 1.6-ext-daa8fb2a98e6
Exec   : chipAirCoolingSimpleFoam
Date   : Nov 29 2011
Time   : 22:11:49
Host   : ubuntu
PID    : 417
Case   : /home/user/ChipAirCoolingClient/run/tutorial1_noRadiation
nProcs : 1
SigFpe : Enabling floating point exception trapping (FOAM_SIGFPE).

// * * * * * * * * * * * * * * * * * * * * * * * * * * * * * * * * * * * * * //
Create time

Create mesh for time = 0


Reading g
Reading transportProperties

Calculating field g.h

Reading field p_rgh

Reading field U

Reading field T

Reading/calculating face flux field phi

Selecting incompressible transport model Newtonian
Selecting RAS turbulence model kEpsilon
kEpsilonCoeffs
{
    Cmu             0.09;
    C1              1.44;
    C2              1.92;
    alphaEps        0.76923;
    sigmaEps        1.3;
}

Reading field kappaEff

Creating radiation model

Selecting radiationModel none
Reading field Tsolid

Reading solid thermal properties
Selecting thermal model multiMaterialZones
Selecting thermal model constant
Selecting thermal model constant
Selecting thermal gap model constant
Reading solid diffusivity k


Starting time loop

--> FOAM Warning : 
    From function dlLibraryTable::open(const dictionary& dict, const word& libsEntry, const TablePtr tablePtr)
    in file lnInclude/dlLibraryTableTemplates.C at line 68
    library "libairbusMaterialModels.so" did not introduce any new entries

Time = 1

DILUPBiCG:  Solving for Ux, Initial residual = 1, Final residual = 9.72759e-05, No Iterations 2
DILUPBiCG:  Solving for Uy, Initial residual = 1, Final residual = 0.000174731, No Iterations 2
DICPCG:  Solving for p_rgh, Initial residual = 1, Final residual = 0.00985949, No Iterations 5
time step continuity errors : sum local = 0.00481111, global = 2.0845e-18, cumulative = 2.0845e-18
DILUPBiCG:  Solving for epsilon, Initial residual = 0.0778063, Final residual = 0.000142604, No Iterations 2
DILUPBiCG:  Solving for k, Initial residual = 1, Final residual = 0.00249972, No Iterations 2
Before T+T solve
BiCG:  Solving for T+T, Initial residual = 0.309142, Final residual = 0.0281809, No Iterations 3
Tres = -0.547143
TsRes = -17.8725
ExecutionTime = 0.02 s



Wall heat fluxes [W]
movingWall 0 0 0 0
left 2.98832e-08 0 0 2.98832e-08
right -0.546175 0 0 -0.546175
bottom 0 0 0 0
frontAndBack 0 0 0 0
sum -0.546175 0 0 -0.546175


Wall heat fluxes [W]
topAndBottom 0 0 0 0
left -1.17421 0 0 -1.17421
right -18.4196 0 0 -18.4196
frontAndBack 0 0 0 0
sum -19.5938 0 0 -19.5938

Time = 2

DILUPBiCG:  Solving for Ux, Initial residual = 0.887586, Final residual = 9.2188e-05, No Iterations 2
DILUPBiCG:  Solving for Uy, Initial residual = 0.822329, Final residual = 0.00721292, No Iterations 1
DICPCG:  Solving for p_rgh, Initial residual = 0.888213, Final residual = 0.00652024, No Iterations 6
time step continuity errors : sum local = 0.0218572, global = -4.29605e-16, cumulative = -4.2752e-16
DILUPBiCG:  Solving for epsilon, Initial residual = 0.0241194, Final residual = 3.05106e-05, No Iterations 2
DILUPBiCG:  Solving for k, Initial residual = 0.65065, Final residual = 0.000809957, No Iterations 2
Before T+T solve
BiCG:  Solving for T+T, Initial residual = 0.0312696, Final residual = 0.00162497, No Iterations 5
Tres = -0.625746
TsRes = -6.4707
ExecutionTime = 0.03 s



Wall heat fluxes [W]
movingWall 0 0 0 0
left 9.86618e-08 1.32317e-22 0 9.86618e-08
right -0.503227 -1.88953e-14 0 -0.503227
bottom 0 0 0 0
frontAndBack 0 0 0 0
sum -0.503227 -1.88953e-14 0 -0.503227


Wall heat fluxes [W]
topAndBottom 0 0 0 0
left 41.3272 0 0 41.3272
right -7.09645 0 0 -7.09645
frontAndBack 0 0 0 0
sum 34.2308 0 0 34.2308

Time = 3

DILUPBiCG:  Solving for Ux, Initial residual = 0.339318, Final residual = 2.39601e-05, No Iterations 2
DILUPBiCG:  Solving for Uy, Initial residual = 0.27475, Final residual = 0.00230214, No Iterations 1
DICPCG:  Solving for p_rgh, Initial residual = 0.399508, Final residual = 0.00282431, No Iterations 5
time step continuity errors : sum local = 0.00812511, global = -2.47757e-16, cumulative = -6.75277e-16
DILUPBiCG:  Solving for epsilon, Initial residual = 0.0773977, Final residual = 4.4046e-05, No Iterations 2
DILUPBiCG:  Solving for k, Initial residual = 0.221411, Final residual = 0.000275522, No Iterations 2
Before T+T solve
BiCG:  Solving for T+T, Initial residual = 0.00846667, Final residual = 0.000686853, No Iterations 5
Tres = -0.673854
TsRes = -3.93247
ExecutionTime = 0.03 s



Wall heat fluxes [W]
movingWall 0 0 0 0
left 8.73477e-07 -2.64633e-22 0 8.73477e-07
right -0.588258 -1.19442e-14 0 -0.588258
bottom 0 0 0 0
frontAndBack 0 0 0 0
sum -0.588257 -1.19442e-14 0 -0.588257


Wall heat fluxes [W]
topAndBottom 0 0 0 0
left 29.18 0 0 29.18
right -4.60633 0 0 -4.60633
frontAndBack 0 0 0 0
sum 24.5737 0 0 24.5737

Time = 4

DILUPBiCG:  Solving for Ux, Initial residual = 0.21981, Final residual = 2.15459e-05, No Iterations 2
DILUPBiCG:  Solving for Uy, Initial residual = 0.248083, Final residual = 0.00236081, No Iterations 1
DICPCG:  Solving for p_rgh, Initial residual = 0.17395, Final residual = 0.00162345, No Iterations 9
time step continuity errors : sum local = 0.00386174, global = -2.56757e-17, cumulative = -7.00953e-16
DILUPBiCG:  Solving for epsilon, Initial residual = 0.117711, Final residual = 9.70099e-05, No Iterations 2
DILUPBiCG:  Solving for k, Initial residual = 0.130115, Final residual = 0.000166938, No Iterations 2
Before T+T solve
BiCG:  Solving for T+T, Initial residual = 0.00534252, Final residual = 0.000159768, No Iterations 5
Tres = -0.718713
TsRes = -2.80411
ExecutionTime = 0.04 s



Wall heat fluxes [W]
movingWall 0 0 0 0
left 3.28798e-06 -8.73289e-21 0 3.28798e-06
right -0.646723 -1.65097e-15 0 -0.646723
bottom 0 0 0 0
frontAndBack 0 0 0 0
sum -0.64672 -1.65098e-15 0 -0.64672


Wall heat fluxes [W]
topAndBottom 0 0 0 0
left 24.6781 0 0 24.6781
right -3.52283 0 0 -3.52283
frontAndBack 0 0 0 0
sum 21.1552 0 0 21.1552

Time = 5

DILUPBiCG:  Solving for Ux, Initial residual = 0.149324, Final residual = 0.0013833, No Iterations 1
DILUPBiCG:  Solving for Uy, Initial residual = 0.171314, Final residual = 0.00140831, No Iterations 1
DICPCG:  Solving for p_rgh, Initial residual = 0.128014, Final residual = 0.00121627, No Iterations 10
time step continuity errors : sum local = 0.00257398, global = 1.5247e-16, cumulative = -5.48483e-16
DILUPBiCG:  Solving for epsilon, Initial residual = 0.138382, Final residual = 0.000125767, No Iterations 2
DILUPBiCG:  Solving for k, Initial residual = 0.0971513, Final residual = 0.000176815, No Iterations 2
Before T+T solve
BiCG:  Solving for T+T, Initial residual = 0.0040273, Final residual = 0.000371154, No Iterations 3
Tres = -0.751474
TsRes = -2.09031
ExecutionTime = 0.04 s



Wall heat fluxes [W]
movingWall 0 0 0 0
left 1.02641e-05 -8.46826e-21 0 1.02641e-05
right -0.698005 7.64336e-15 0 -0.698005
bottom 0 0 0 0
frontAndBack 0 0 0 0
sum -0.697995 7.64335e-15 0 -0.697995


Wall heat fluxes [W]
topAndBottom 0 0 0 0
left 18.5495 0 0 18.5495
right -2.84179 0 0 -2.84179
frontAndBack 0 0 0 0
sum 15.7077 0 0 15.7077

Time = 6

DILUPBiCG:  Solving for Ux, Initial residual = 0.123504, Final residual = 0.00102917, No Iterations 1
DILUPBiCG:  Solving for Uy, Initial residual = 0.1001, Final residual = 0.000755855, No Iterations 1
DICPCG:  Solving for p_rgh, Initial residual = 0.113197, Final residual = 0.000560861, No Iterations 11
time step continuity errors : sum local = 0.00125413, global = -2.55454e-17, cumulative = -5.74028e-16
DILUPBiCG:  Solving for epsilon, Initial residual = 0.134009, Final residual = 0.000132797, No Iterations 2
DILUPBiCG:  Solving for k, Initial residual = 0.0802721, Final residual = 0.000158115, No Iterations 2
Before T+T solve
BiCG:  Solving for T+T, Initial residual = 0.00328845, Final residual = 0.000211901, No Iterations 3
Tres = -0.778054
TsRes = -1.64938
ExecutionTime = 0.04 s



Wall heat fluxes [W]
movingWall 0 0 0 0
left 2.63966e-05 -1.35492e-19 0 2.63966e-05
right -0.735603 -8.64179e-16 0 -0.735603
bottom 0 0 0 0
frontAndBack 0 0 0 0
sum -0.735576 -8.64314e-16 0 -0.735576


Wall heat fluxes [W]
topAndBottom 0 0 0 0
left 14.91 0 0 14.91
right -2.42746 0 0 -2.42746
frontAndBack 0 0 0 0
sum 12.4825 0 0 12.4825

Time = 7

DILUPBiCG:  Solving for Ux, Initial residual = 0.0923382, Final residual = 0.000784386, No Iterations 1
DILUPBiCG:  Solving for Uy, Initial residual = 0.0795741, Final residual = 0.000594858, No Iterations 1
DICPCG:  Solving for p_rgh, Initial residual = 0.0912476, Final residual = 0.000489787, No Iterations 11
time step continuity errors : sum local = 0.00106429, global = -6.21089e-17, cumulative = -6.36137e-16
DILUPBiCG:  Solving for epsilon, Initial residual = 0.110444, Final residual = 0.000130149, No Iterations 2
DILUPBiCG:  Solving for k, Initial residual = 0.0705897, Final residual = 0.000102983, No Iterations 2
Before T+T solve
BiCG:  Solving for T+T, Initial residual = 0.00285157, Final residual = 0.000182765, No Iterations 3
Tres = -0.796918
TsRes = -1.25016
ExecutionTime = 0.04 s



Wall heat fluxes [W]
movingWall 0 0 0 0
left 5.7104e-05 -8.46826e-20 0 5.7104e-05
right -0.765614 -2.64243e-15 0 -0.765614
bottom 0 0 0 0
frontAndBack 0 0 0 0
sum -0.765557 -2.64252e-15 0 -0.765557


Wall heat fluxes [W]
topAndBottom 0 0 0 0
left 11.2293 0 0 11.2293
right -2.04713 0 0 -2.04713
frontAndBack 0 0 0 0
sum 9.18215 0 0 9.18215

Time = 8

DILUPBiCG:  Solving for Ux, Initial residual = 0.0724401, Final residual = 0.000646827, No Iterations 1
DILUPBiCG:  Solving for Uy, Initial residual = 0.0703694, Final residual = 0.000522158, No Iterations 1
DICPCG:  Solving for p_rgh, Initial residual = 0.0841626, Final residual = 0.000793456, No Iterations 10
time step continuity errors : sum local = 0.00160643, global = -1.43466e-16, cumulative = -7.79603e-16
DILUPBiCG:  Solving for epsilon, Initial residual = 0.0861101, Final residual = 2.71362e-06, No Iterations 3
DILUPBiCG:  Solving for k, Initial residual = 0.0651685, Final residual = 0.000110886, No Iterations 2
Before T+T solve
BiCG:  Solving for T+T, Initial residual = 0.00246684, Final residual = 0.000156433, No Iterations 3
Tres = -0.812182
TsRes = -0.985072
ExecutionTime = 0.05 s



Wall heat fluxes [W]
movingWall 0 0 0 0
left 0.00011265 -5.50437e-19 0 0.00011265
right -0.787104 -8.02525e-15 0 -0.787104
bottom 0 0 0 0
frontAndBack 0 0 0 0
sum -0.786991 -8.0258e-15 0 -0.786991


Wall heat fluxes [W]
topAndBottom 0 0 0 0
left 9.19006 0 0 9.19006
right -1.79737 0 0 -1.79737
frontAndBack 0 0 0 0
sum 7.3927 0 0 7.3927

Time = 9

DILUPBiCG:  Solving for Ux, Initial residual = 0.056959, Final residual = 0.000527131, No Iterations 1
DILUPBiCG:  Solving for Uy, Initial residual = 0.0644115, Final residual = 0.000480056, No Iterations 1
DICPCG:  Solving for p_rgh, Initial residual = 0.0859239, Final residual = 0.000689952, No Iterations 10
time step continuity errors : sum local = 0.00139079, global = 2.532e-16, cumulative = -5.26403e-16
DILUPBiCG:  Solving for epsilon, Initial residual = 0.0680941, Final residual = 7.77164e-05, No Iterations 2
DILUPBiCG:  Solving for k, Initial residual = 0.0611087, Final residual = 0.000104247, No Iterations 2
Before T+T solve
BiCG:  Solving for T+T, Initial residual = 0.00221475, Final residual = 0.000125498, No Iterations 3
Tres = -0.822922
TsRes = -0.753844
ExecutionTime = 0.05 s



Wall heat fluxes [W]
movingWall 0 0 0 0
left 0.000204682 1.08394e-18 0 0.000204682
right -0.804503 1.34955e-14 0 -0.804503
bottom 0 0 0 0
frontAndBack 0 0 0 0
sum -0.804299 1.34966e-14 0 -0.804299


Wall heat fluxes [W]
topAndBottom 0 0 0 0
left 7.01649 0 0 7.01649
right -1.57697 0 0 -1.57697
frontAndBack 0 0 0 0
sum 5.43952 0 0 5.43952

Time = 10

DILUPBiCG:  Solving for Ux, Initial residual = 0.0488512, Final residual = 0.000455775, No Iterations 1
DILUPBiCG:  Solving for Uy, Initial residual = 0.0599921, Final residual = 0.0004377, No Iterations 1
DICPCG:  Solving for p_rgh, Initial residual = 0.0841635, Final residual = 0.000649884, No Iterations 10
time step continuity errors : sum local = 0.00132576, global = -1.70035e-16, cumulative = -6.96439e-16
DILUPBiCG:  Solving for epsilon, Initial residual = 0.0549315, Final residual = 5.4777e-05, No Iterations 2
DILUPBiCG:  Solving for k, Initial residual = 0.0578853, Final residual = 9.16846e-05, No Iterations 2
Before T+T solve
BiCG:  Solving for T+T, Initial residual = 0.00199762, Final residual = 0.000120192, No Iterations 3
Tres = -0.831795
TsRes = -0.59362
ExecutionTime = 0.05 s



Wall heat fluxes [W]
movingWall 0 0 0 0
left 0.000353258 1.35492e-18 0 0.000353258
right -0.817001 -8.15685e-15 0 -0.817001
bottom 0 0 0 0
frontAndBack 0 0 0 0
sum -0.816648 -8.15549e-15 0 -0.816648


Wall heat fluxes [W]
topAndBottom 0 0 0 0
left 5.86855 0 0 5.86855
right -1.42577 0 0 -1.42577
frontAndBack 0 0 0 0
sum 4.44279 0 0 4.44279

Time = 11

DILUPBiCG:  Solving for Ux, Initial residual = 0.0432809, Final residual = 0.000416231, No Iterations 1
DILUPBiCG:  Solving for Uy, Initial residual = 0.0561126, Final residual = 0.000404166, No Iterations 1
DICPCG:  Solving for p_rgh, Initial residual = 0.0814131, Final residual = 0.000624495, No Iterations 10
time step continuity errors : sum local = 0.0012958, global = -1.49554e-17, cumulative = -7.11394e-16
DILUPBiCG:  Solving for epsilon, Initial residual = 0.0447755, Final residual = 5.17952e-05, No Iterations 2
DILUPBiCG:  Solving for k, Initial residual = 0.0548956, Final residual = 7.73622e-05, No Iterations 2
Before T+T solve
BiCG:  Solving for T+T, Initial residual = 0.00185161, Final residual = 9.48585e-05, No Iterations 3
Tres = -0.837955
TsRes = -0.456606
ExecutionTime = 0.06 s



Wall heat fluxes [W]
movingWall 0 0 0 0
left 0.00058137 -4.33575e-18 0 0.00058137
right -0.827396 -1.58215e-19 0 -0.827396
bottom 0 0 0 0
frontAndBack 0 0 0 0
sum -0.826814 -4.49396e-18 0 -0.826814


Wall heat fluxes [W]
topAndBottom 0 0 0 0
left 4.54297 0 0 4.54297
right -1.29514 0 0 -1.29514
frontAndBack 0 0 0 0
sum 3.24783 0 0 3.24783

Time = 12

DILUPBiCG:  Solving for Ux, Initial residual = 0.0401289, Final residual = 0.000393604, No Iterations 1
DILUPBiCG:  Solving for Uy, Initial residual = 0.0519735, Final residual = 0.000370358, No Iterations 1
DICPCG:  Solving for p_rgh, Initial residual = 0.0757858, Final residual = 0.000559183, No Iterations 10
time step continuity errors : sum local = 0.00117926, global = 2.67973e-16, cumulative = -4.43421e-16
DILUPBiCG:  Solving for epsilon, Initial residual = 0.0372581, Final residual = 4.66961e-05, No Iterations 2
DILUPBiCG:  Solving for k, Initial residual = 0.0524515, Final residual = 6.99669e-05, No Iterations 2
Before T+T solve
BiCG:  Solving for T+T, Initial residual = 0.00173217, Final residual = 9.41569e-05, No Iterations 3
Tres = -0.843219
TsRes = -0.359622
ExecutionTime = 0.06 s



Wall heat fluxes [W]
movingWall 0 0 0 0
left 0.000924558 7.51982e-18 0 0.000924558
right -0.834966 1.46421e-14 0 -0.834966
bottom 0 0 0 0
frontAndBack 0 0 0 0
sum -0.834042 1.46497e-14 0 -0.834042


Wall heat fluxes [W]
topAndBottom 0 0 0 0
left 3.89527 0 0 3.89527
right -1.20377 0 0 -1.20377
frontAndBack 0 0 0 0
sum 2.6915 0 0 2.6915

Time = 13

DILUPBiCG:  Solving for Ux, Initial residual = 0.0370213, Final residual = 2.70025e-06, No Iterations 2
DILUPBiCG:  Solving for Uy, Initial residual = 0.0486475, Final residual = 0.000336591, No Iterations 1
DICPCG:  Solving for p_rgh, Initial residual = 0.0701649, Final residual = 0.000506926, No Iterations 10
time step continuity errors : sum local = 0.00109806, global = -1.16004e-16, cumulative = -5.59424e-16
DILUPBiCG:  Solving for epsilon, Initial residual = 0.0317824, Final residual = 3.9591e-05, No Iterations 2
DILUPBiCG:  Solving for k, Initial residual = 0.0505791, Final residual = 6.56654e-05, No Iterations 2
Before T+T solve
BiCG:  Solving for T+T, Initial residual = 0.00164598, Final residual = 7.55016e-05, No Iterations 3
Tres = -0.846772
TsRes = -0.277014
ExecutionTime = 0.06 s



Wall heat fluxes [W]
movingWall 0 0 0 0
left 0.00142294 -6.77461e-20 0 0.00142294
right -0.841517 -4.59072e-15 0 -0.841517
bottom 0 0 0 0
frontAndBack 0 0 0 0
sum -0.840094 -4.59079e-15 0 -0.840094


Wall heat fluxes [W]
topAndBottom 0 0 0 0
left 3.06836 0 0 3.06836
right -1.12521 0 0 -1.12521
frontAndBack 0 0 0 0
sum 1.94315 0 0 1.94315

Time = 14

DILUPBiCG:  Solving for Ux, Initial residual = 0.0343932, Final residual = 2.89678e-06, No Iterations 2
DILUPBiCG:  Solving for Uy, Initial residual = 0.0455216, Final residual = 0.000309403, No Iterations 1
DICPCG:  Solving for p_rgh, Initial residual = 0.0634347, Final residual = 0.000467356, No Iterations 10
time step continuity errors : sum local = 0.00103599, global = 3.5711e-16, cumulative = -2.02314e-16
DILUPBiCG:  Solving for epsilon, Initial residual = 0.0281852, Final residual = 3.36531e-05, No Iterations 2
DILUPBiCG:  Solving for k, Initial residual = 0.0495405, Final residual = 6.52705e-05, No Iterations 2
Before T+T solve
BiCG:  Solving for T+T, Initial residual = 0.00158109, Final residual = 7.51353e-05, No Iterations 3
Tres = -0.849793
TsRes = -0.218311
ExecutionTime = 0.07 s



Wall heat fluxes [W]
movingWall 0 0 0 0
left 0.00213758 1.46332e-17 0 0.00213758
right -0.846353 1.84031e-14 0 -0.846353
bottom 0 0 0 0
frontAndBack 0 0 0 0
sum -0.844216 1.84178e-14 0 -0.844216


Wall heat fluxes [W]
topAndBottom 0 0 0 0
left 2.70593 0 0 2.70593
right -1.07024 0 0 -1.07024
frontAndBack 0 0 0 0
sum 1.63569 0 0 1.63569

Time = 15

DILUPBiCG:  Solving for Ux, Initial residual = 0.032062, Final residual = 3.25223e-06, No Iterations 2
DILUPBiCG:  Solving for Uy, Initial residual = 0.0432648, Final residual = 0.00028752, No Iterations 1
DICPCG:  Solving for p_rgh, Initial residual = 0.0579815, Final residual = 0.000436893, No Iterations 10
time step continuity errors : sum local = 0.00097942, global = 7.54058e-16, cumulative = 5.51744e-16
DILUPBiCG:  Solving for epsilon, Initial residual = 0.0262934, Final residual = 2.84063e-05, No Iterations 2
DILUPBiCG:  Solving for k, Initial residual = 0.0492771, Final residual = 6.56046e-05, No Iterations 2
Before T+T solve
BiCG:  Solving for T+T, Initial residual = 0.00153587, Final residual = 6.2489e-05, No Iterations 3
Tres = -0.85155
TsRes = -0.167935
ExecutionTime = 0.07 s



Wall heat fluxes [W]
movingWall 0 0 0 0
left 0.00313888 -2.81824e-17 0 0.00313888
right -0.850697 4.24143e-14 0 -0.850697
bottom 0 0 0 0
frontAndBack 0 0 0 0
sum -0.847558 4.23861e-14 0 -0.847558


Wall heat fluxes [W]
topAndBottom 0 0 0 0
left 2.18162 0 0 2.18162
right -1.02262 0 0 -1.02262
frontAndBack 0 0 0 0
sum 1.15899 0 0 1.15899

Time = 16

DILUPBiCG:  Solving for Ux, Initial residual = 0.030564, Final residual = 3.24794e-06, No Iterations 2
DILUPBiCG:  Solving for Uy, Initial residual = 0.0413663, Final residual = 0.000270848, No Iterations 1
DICPCG:  Solving for p_rgh, Initial residual = 0.0547409, Final residual = 0.000521634, No Iterations 9
time step continuity errors : sum local = 0.00127939, global = -1.13224e-16, cumulative = 4.38519e-16
DILUPBiCG:  Solving for epsilon, Initial residual = 0.0249212, Final residual = 2.34249e-05, No Iterations 2
DILUPBiCG:  Solving for k, Initial residual = 0.0494433, Final residual = 6.83217e-05, No Iterations 2
Before T+T solve
BiCG:  Solving for T+T, Initial residual = 0.00150801, Final residual = 6.16975e-05, No Iterations 3
Tres = -0.852826
TsRes = -0.132483
ExecutionTime = 0.07 s



Wall heat fluxes [W]
movingWall 0 0 0 0
left 0.00451363 -6.23264e-18 0 0.00451363
right -0.853955 -5.54629e-15 0 -0.853955
bottom 0 0 0 0
frontAndBack 0 0 0 0
sum -0.849441 -5.55252e-15 0 -0.849441


Wall heat fluxes [W]
topAndBottom 0 0 0 0
left 1.98246 0 0 1.98246
right -0.989823 0 0 -0.989823
frontAndBack 0 0 0 0
sum 0.99264 0 0 0.99264

Time = 17

DILUPBiCG:  Solving for Ux, Initial residual = 0.0290566, Final residual = 3.39177e-06, No Iterations 2
DILUPBiCG:  Solving for Uy, Initial residual = 0.0393169, Final residual = 0.000263903, No Iterations 1
DICPCG:  Solving for p_rgh, Initial residual = 0.0519446, Final residual = 0.000364668, No Iterations 9
time step continuity errors : sum local = 0.000881668, global = 4.49523e-16, cumulative = 8.88042e-16
DILUPBiCG:  Solving for epsilon, Initial residual = 0.0239293, Final residual = 2.03965e-05, No Iterations 2
DILUPBiCG:  Solving for k, Initial residual = 0.0497856, Final residual = 7.22388e-05, No Iterations 2
Before T+T solve
BiCG:  Solving for T+T, Initial residual = 0.00149755, Final residual = 5.39591e-05, No Iterations 3
Tres = -0.852985
TsRes = -0.101565
ExecutionTime = 0.08 s



Wall heat fluxes [W]
movingWall 0 0 0 0
left 0.00636669 7.15399e-17 0 0.00636669
right -0.856986 2.58846e-14 0 -0.856986
bottom 0 0 0 0
frontAndBack 0 0 0 0
sum -0.850619 2.59562e-14 0 -0.850619


Wall heat fluxes [W]
topAndBottom 0 0 0 0
left 1.6458 0 0 1.6458
right -0.960916 0 0 -0.960916
frontAndBack 0 0 0 0
sum 0.684887 0 0 0.684887

Time = 18

DILUPBiCG:  Solving for Ux, Initial residual = 0.0275049, Final residual = 3.15883e-06, No Iterations 2
DILUPBiCG:  Solving for Uy, Initial residual = 0.0374458, Final residual = 0.000262315, No Iterations 1
DICPCG:  Solving for p_rgh, Initial residual = 0.0482365, Final residual = 0.000375839, No Iterations 9
time step continuity errors : sum local = 0.00095323, global = 3.48789e-16, cumulative = 1.23683e-15
DILUPBiCG:  Solving for epsilon, Initial residual = 0.0235251, Final residual = 1.94071e-05, No Iterations 2
DILUPBiCG:  Solving for k, Initial residual = 0.0503884, Final residual = 7.55144e-05, No Iterations 2
Before T+T solve
BiCG:  Solving for T+T, Initial residual = 0.00148993, Final residual = 0.000144521, No Iterations 2
Tres = -0.851006
TsRes = -0.0952247
ExecutionTime = 0.08 s



Wall heat fluxes [W]
movingWall 0 0 0 0
left 0.00900734 -7.23528e-17 0 0.00900734
right -0.859346 1.94263e-14 0 -0.859346
bottom 0 0 0 0
frontAndBack 0 0 0 0
sum -0.850339 1.93539e-14 0 -0.850339


Wall heat fluxes [W]
topAndBottom 0 0 0 0
left 1.08186 0 0 1.08186
right -0.955238 0 0 -0.955238
frontAndBack 0 0 0 0
sum 0.126627 0 0 0.126627

Time = 19

DILUPBiCG:  Solving for Ux, Initial residual = 0.0260144, Final residual = 3.07324e-06, No Iterations 2
DILUPBiCG:  Solving for Uy, Initial residual = 0.036864, Final residual = 0.000260894, No Iterations 1
DICPCG:  Solving for p_rgh, Initial residual = 0.045002, Final residual = 0.000278369, No Iterations 10
time step continuity errors : sum local = 0.000734898, global = -2.34009e-16, cumulative = 1.00282e-15
DILUPBiCG:  Solving for epsilon, Initial residual = 0.0235471, Final residual = 2.05244e-05, No Iterations 2
DILUPBiCG:  Solving for k, Initial residual = 0.0512388, Final residual = 8.09112e-05, No Iterations 2
Before T+T solve
BiCG:  Solving for T+T, Initial residual = 0.00152244, Final residual = 5.40561e-05, No Iterations 3
Tres = -0.850035
TsRes = -0.0738077
ExecutionTime = 0.08 s



Wall heat fluxes [W]
movingWall 0 0 0 0
left 0.0122528 -5.41969e-19 0 0.0122528
right -0.860102 -1.29554e-14 0 -0.860102
bottom 0 0 0 0
frontAndBack 0 0 0 0
sum -0.847849 -1.29559e-14 0 -0.847849


Wall heat fluxes [W]
topAndBottom 0 0 0 0
left 1.58885 0 0 1.58885
right -0.936095 0 0 -0.936095
frontAndBack 0 0 0 0
sum 0.652751 0 0 0.652751

Time = 20

DILUPBiCG:  Solving for Ux, Initial residual = 0.0247563, Final residual = 3.25394e-06, No Iterations 2
DILUPBiCG:  Solving for Uy, Initial residual = 0.0352312, Final residual = 0.00026621, No Iterations 1
DICPCG:  Solving for p_rgh, Initial residual = 0.0427697, Final residual = 0.00034981, No Iterations 10
time step continuity errors : sum local = 0.00095328, global = -1.19313e-16, cumulative = 8.8351e-16
DILUPBiCG:  Solving for epsilon, Initial residual = 0.0235014, Final residual = 2.23249e-05, No Iterations 2
DILUPBiCG:  Solving for k, Initial residual = 0.0520874, Final residual = 8.7847e-05, No Iterations 2
Before T+T solve
BiCG:  Solving for T+T, Initial residual = 0.00151463, Final residual = 0.000123344, No Iterations 1
Tres = -0.846405
TsRes = -0.071744
ExecutionTime = 0.09 s



Wall heat fluxes [W]
movingWall 0 0 0 0
left 0.0161266 2.53641e-16 0 0.0161266
right -0.862467 -6.48171e-15 0 -0.862467
bottom 0 0 0 0
frontAndBack 0 0 0 0
sum -0.84634 -6.22807e-15 0 -0.84634


Wall heat fluxes [W]
topAndBottom 0 0 0 0
left 0.88404 0 0 0.88404
right -0.934275 0 0 -0.934275
frontAndBack 0 0 0 0
sum -0.050235 0 0 -0.050235

Time = 21

DILUPBiCG:  Solving for Ux, Initial residual = 0.0234564, Final residual = 2.48153e-06, No Iterations 2
DILUPBiCG:  Solving for Uy, Initial residual = 0.0340402, Final residual = 0.000279598, No Iterations 1
DICPCG:  Solving for p_rgh, Initial residual = 0.042584, Final residual = 0.000387748, No Iterations 10
time step continuity errors : sum local = 0.00109048, global = 2.68552e-16, cumulative = 1.15206e-15
DILUPBiCG:  Solving for epsilon, Initial residual = 0.02372, Final residual = 2.42358e-05, No Iterations 2
DILUPBiCG:  Solving for k, Initial residual = 0.0531692, Final residual = 9.3992e-05, No Iterations 2
Before T+T solve
BiCG:  Solving for T+T, Initial residual = 0.00151906, Final residual = 0.000141514, No Iterations 1
Tres = -0.841904
TsRes = -0.0694108
ExecutionTime = 0.09 s



Wall heat fluxes [W]
movingWall 0 0 0 0
left 0.0211266 9.21347e-18 0 0.0211266
right -0.862813 1.48234e-14 0 -0.862813
bottom 0 0 0 0
frontAndBack 0 0 0 0
sum -0.841686 1.48326e-14 0 -0.841686


Wall heat fluxes [W]
topAndBottom 0 0 0 0
left 0.935441 0 0 0.935441
right -0.932442 0 0 -0.932442
frontAndBack 0 0 0 0
sum 0.00299972 0 0 0.00299972

Time = 22

DILUPBiCG:  Solving for Ux, Initial residual = 0.0215525, Final residual = 2.53196e-06, No Iterations 2
DILUPBiCG:  Solving for Uy, Initial residual = 0.0330151, Final residual = 0.000284828, No Iterations 1
DICPCG:  Solving for p_rgh, Initial residual = 0.0401687, Final residual = 0.000323035, No Iterations 10
time step continuity errors : sum local = 0.000945573, global = -9.79382e-17, cumulative = 1.05412e-15
DILUPBiCG:  Solving for epsilon, Initial residual = 0.0237361, Final residual = 2.62367e-05, No Iterations 2
DILUPBiCG:  Solving for k, Initial residual = 0.0541921, Final residual = 0.000100008, No Iterations 2
Before T+T solve
BiCG:  Solving for T+T, Initial residual = 0.00151751, Final residual = 0.000138081, No Iterations 1
Tres = -0.836045
TsRes = -0.0672871
ExecutionTime = 0.09 s



Wall heat fluxes [W]
movingWall 0 0 0 0
left 0.0273314 -1.38744e-16 0 0.0273314
right -0.863241 -5.5568e-15 0 -0.863241
bottom 0 0 0 0
frontAndBack 0 0 0 0
sum -0.835909 -5.69555e-15 0 -0.835909


Wall heat fluxes [W]
topAndBottom 0 0 0 0
left 0.908643 0 0 0.908643
right -0.930664 0 0 -0.930664
frontAndBack 0 0 0 0
sum -0.0220207 0 0 -0.0220207

Time = 23

DILUPBiCG:  Solving for Ux, Initial residual = 0.0198837, Final residual = 2.36085e-06, No Iterations 2
DILUPBiCG:  Solving for Uy, Initial residual = 0.0317864, Final residual = 0.00028161, No Iterations 1
DICPCG:  Solving for p_rgh, Initial residual = 0.0385297, Final residual = 0.000283843, No Iterations 10
time step continuity errors : sum local = 0.000814747, global = -1.52797e-16, cumulative = 9.01326e-16
DILUPBiCG:  Solving for epsilon, Initial residual = 0.0233639, Final residual = 2.84396e-05, No Iterations 2
DILUPBiCG:  Solving for k, Initial residual = 0.0550174, Final residual = 0.000105073, No Iterations 2
Before T+T solve
BiCG:  Solving for T+T, Initial residual = 0.00151834, Final residual = 0.000136997, No Iterations 1
Tres = -0.828791
TsRes = -0.0653216
ExecutionTime = 0.1 s



Wall heat fluxes [W]
movingWall 0 0 0 0
left 0.0348376 -1.08394e-17 0 0.0348376
right -0.863481 -8.33717e-15 0 -0.863481
bottom 0 0 0 0
frontAndBack 0 0 0 0
sum -0.828644 -8.34801e-15 0 -0.828644


Wall heat fluxes [W]
topAndBottom 0 0 0 0
left 0.912581 0 0 0.912581
right -0.92895 0 0 -0.92895
frontAndBack 0 0 0 0
sum -0.0163689 0 0 -0.0163689

Time = 24

DILUPBiCG:  Solving for Ux, Initial residual = 0.0182465, Final residual = 2.36822e-06, No Iterations 2
DILUPBiCG:  Solving for Uy, Initial residual = 0.0302893, Final residual = 0.000281032, No Iterations 1
DICPCG:  Solving for p_rgh, Initial residual = 0.0376193, Final residual = 0.000329291, No Iterations 10
time step continuity errors : sum local = 0.00101791, global = 2.42529e-16, cumulative = 1.14386e-15
DILUPBiCG:  Solving for epsilon, Initial residual = 0.0225476, Final residual = 3.01525e-05, No Iterations 2
DILUPBiCG:  Solving for k, Initial residual = 0.0554937, Final residual = 0.000108327, No Iterations 2
Before T+T solve
BiCG:  Solving for T+T, Initial residual = 0.00150864, Final residual = 0.000135695, No Iterations 1
Tres = -0.820024
TsRes = -0.0635807
ExecutionTime = 0.1 s



Wall heat fluxes [W]
movingWall 0 0 0 0
left 0.043697 3.68539e-17 0 0.043697
right -0.863584 1.57448e-14 0 -0.863584
bottom 0 0 0 0
frontAndBack 0 0 0 0
sum -0.819887 1.57816e-14 0 -0.819887


Wall heat fluxes [W]
topAndBottom 0 0 0 0
left 0.90926 0 0 0.90926
right -0.927302 0 0 -0.927302
frontAndBack 0 0 0 0
sum -0.018042 0 0 -0.018042

Time = 25

DILUPBiCG:  Solving for Ux, Initial residual = 0.0166735, Final residual = 2.69517e-06, No Iterations 2
DILUPBiCG:  Solving for Uy, Initial residual = 0.028691, Final residual = 0.000278003, No Iterations 1
DICPCG:  Solving for p_rgh, Initial residual = 0.0370126, Final residual = 0.000236369, No Iterations 11
time step continuity errors : sum local = 0.000774823, global = -3.08108e-16, cumulative = 8.35748e-16
DILUPBiCG:  Solving for epsilon, Initial residual = 0.0216616, Final residual = 3.12898e-05, No Iterations 2
DILUPBiCG:  Solving for k, Initial residual = 0.0553642, Final residual = 0.000110262, No Iterations 2
Before T+T solve
BiCG:  Solving for T+T, Initial residual = 0.00149302, Final residual = 0.000134781, No Iterations 1
Tres = -0.809732
TsRes = -0.0620814
ExecutionTime = 0.1 s



Wall heat fluxes [W]
movingWall 0 0 0 0
left 0.0538983 2.08116e-16 0 0.0538983
right -0.863495 -1.66776e-14 0 -0.863495
bottom 0 0 0 0
frontAndBack 0 0 0 0
sum -0.809596 -1.64695e-14 0 -0.809596


Wall heat fluxes [W]
topAndBottom 0 0 0 0
left 0.90885 0 0 0.90885
right -0.925712 0 0 -0.925712
frontAndBack 0 0 0 0
sum -0.0168621 0 0 -0.0168621

Time = 26

DILUPBiCG:  Solving for Ux, Initial residual = 0.0151799, Final residual = 4.80326e-06, No Iterations 2
DILUPBiCG:  Solving for Uy, Initial residual = 0.0268983, Final residual = 3.6797e-06, No Iterations 2
DICPCG:  Solving for p_rgh, Initial residual = 0.0365135, Final residual = 0.000259775, No Iterations 11
time step continuity errors : sum local = 0.000849792, global = 2.55764e-16, cumulative = 1.09151e-15
DILUPBiCG:  Solving for epsilon, Initial residual = 0.0204186, Final residual = 3.13357e-05, No Iterations 2
DILUPBiCG:  Solving for k, Initial residual = 0.0547602, Final residual = 0.000110887, No Iterations 2
Before T+T solve
BiCG:  Solving for T+T, Initial residual = 0.00146885, Final residual = 0.000134148, No Iterations 1
Tres = -0.797999
TsRes = -0.0608354
ExecutionTime = 0.1 s



Wall heat fluxes [W]
movingWall 0 0 0 0
left 0.0653391 7.47917e-16 0 0.0653391
right -0.863204 1.20449e-14 0 -0.863204
bottom 0 0 0 0
frontAndBack 0 0 0 0
sum -0.797865 1.27928e-14 0 -0.797865


Wall heat fluxes [W]
topAndBottom 0 0 0 0
left 0.907868 0 0 0.907868
right -0.924173 0 0 -0.924173
frontAndBack 0 0 0 0
sum -0.0163055 0 0 -0.0163055

Time = 27

DILUPBiCG:  Solving for Ux, Initial residual = 0.0140371, Final residual = 4.58107e-05, No Iterations 2
DILUPBiCG:  Solving for Uy, Initial residual = 0.0250698, Final residual = 3.08012e-06, No Iterations 2
DICPCG:  Solving for p_rgh, Initial residual = 0.0344532, Final residual = 0.000254837, No Iterations 11
time step continuity errors : sum local = 0.000821434, global = 2.44978e-16, cumulative = 1.33649e-15
DILUPBiCG:  Solving for epsilon, Initial residual = 0.0190053, Final residual = 3.15857e-05, No Iterations 2
DILUPBiCG:  Solving for k, Initial residual = 0.0537618, Final residual = 0.000110633, No Iterations 2
Before T+T solve
BiCG:  Solving for T+T, Initial residual = 0.00144557, Final residual = 0.000133812, No Iterations 1
Tres = -0.784966
TsRes = -0.0598476
ExecutionTime = 0.11 s



Wall heat fluxes [W]
movingWall 0 0 0 0
left 0.0778674 2.0378e-16 0 0.0778674
right -0.8627 1.39006e-14 0 -0.8627
bottom 0 0 0 0
frontAndBack 0 0 0 0
sum -0.784833 1.41044e-14 0 -0.784833


Wall heat fluxes [W]
topAndBottom 0 0 0 0
left 0.907231 0 0 0.907231
right -0.922681 0 0 -0.922681
frontAndBack 0 0 0 0
sum -0.0154501 0 0 -0.0154501

Time = 28

DILUPBiCG:  Solving for Ux, Initial residual = 0.0130048, Final residual = 4.26397e-06, No Iterations 2
DILUPBiCG:  Solving for Uy, Initial residual = 0.0233527, Final residual = 4.56444e-06, No Iterations 2
DICPCG:  Solving for p_rgh, Initial residual = 0.0317526, Final residual = 0.000191654, No Iterations 11
time step continuity errors : sum local = 0.00062629, global = 1.64113e-17, cumulative = 1.3529e-15
DILUPBiCG:  Solving for epsilon, Initial residual = 0.0174562, Final residual = 3.39229e-05, No Iterations 2
DILUPBiCG:  Solving for k, Initial residual = 0.0521347, Final residual = 0.000107692, No Iterations 2
Before T+T solve
BiCG:  Solving for T+T, Initial residual = 0.00141801, Final residual = 0.000133577, No Iterations 1
Tres = -0.770898
TsRes = -0.0591177
ExecutionTime = 0.11 s



Wall heat fluxes [W]
movingWall 0 0 0 0
left 0.0912161 2.25459e-16 0 0.0912161
right -0.861981 -9.25654e-16 0 -0.861981
bottom 0 0 0 0
frontAndBack 0 0 0 0
sum -0.770764 -7.00195e-16 0 -0.770764


Wall heat fluxes [W]
topAndBottom 0 0 0 0
left 0.906562 0 0 0.906562
right -0.921232 0 0 -0.921232
frontAndBack 0 0 0 0
sum -0.0146702 0 0 -0.0146702

Time = 29

DILUPBiCG:  Solving for Ux, Initial residual = 0.0120736, Final residual = 2.91319e-06, No Iterations 2
DILUPBiCG:  Solving for Uy, Initial residual = 0.0215695, Final residual = 4.81657e-06, No Iterations 2
DICPCG:  Solving for p_rgh, Initial residual = 0.0297715, Final residual = 0.000251537, No Iterations 6
time step continuity errors : sum local = 0.000990675, global = 2.75021e-16, cumulative = 1.62792e-15
DILUPBiCG:  Solving for epsilon, Initial residual = 0.015838, Final residual = 4.41819e-05, No Iterations 2
DILUPBiCG:  Solving for k, Initial residual = 0.0501975, Final residual = 0.000102408, No Iterations 2
Before T+T solve
BiCG:  Solving for T+T, Initial residual = 0.0013866, Final residual = 0.00013371, No Iterations 1
Tres = -0.756058
TsRes = -0.0586412
ExecutionTime = 0.11 s



Wall heat fluxes [W]
movingWall 0 0 0 0
left 0.105123 8.15121e-16 0 0.105123
right -0.861046 1.39025e-14 0 -0.861046
bottom 0 0 0 0
frontAndBack 0 0 0 0
sum -0.755923 1.47176e-14 0 -0.755923


Wall heat fluxes [W]
topAndBottom 0 0 0 0
left 0.905934 0 0 0.905934
right -0.919822 0 0 -0.919822
frontAndBack 0 0 0 0
sum -0.0138877 0 0 -0.0138877

Time = 30

DILUPBiCG:  Solving for Ux, Initial residual = 0.0111008, Final residual = 2.64402e-06, No Iterations 2
DILUPBiCG:  Solving for Uy, Initial residual = 0.0202658, Final residual = 5.29217e-06, No Iterations 2
DICPCG:  Solving for p_rgh, Initial residual = 0.0278296, Final residual = 0.000123256, No Iterations 11
time step continuity errors : sum local = 0.000395151, global = 3.96782e-16, cumulative = 2.0247e-15
DILUPBiCG:  Solving for epsilon, Initial residual = 0.0147331, Final residual = 0.000147264, No Iterations 2
DILUPBiCG:  Solving for k, Initial residual = 0.047711, Final residual = 9.58632e-05, No Iterations 2
Before T+T solve
BiCG:  Solving for T+T, Initial residual = 0.00134828, Final residual = 0.000133699, No Iterations 1
Tres = -0.740795
TsRes = -0.0584127
ExecutionTime = 0.12 s



Wall heat fluxes [W]
movingWall 0 0 0 0
left 0.11924 7.80435e-17 0 0.11924
right -0.859898 1.94641e-14 0 -0.859898
bottom 0 0 0 0
frontAndBack 0 0 0 0
sum -0.740659 1.95421e-14 0 -0.740659


Wall heat fluxes [W]
topAndBottom 0 0 0 0
left 0.905296 0 0 0.905296
right -0.918447 0 0 -0.918447
frontAndBack 0 0 0 0
sum -0.0131517 0 0 -0.0131517

Time = 31

DILUPBiCG:  Solving for Ux, Initial residual = 0.010542, Final residual = 2.61706e-06, No Iterations 2
DILUPBiCG:  Solving for Uy, Initial residual = 0.0191526, Final residual = 8.07768e-06, No Iterations 2
DICPCG:  Solving for p_rgh, Initial residual = 0.0263616, Final residual = 0.000187389, No Iterations 6
time step continuity errors : sum local = 0.000617892, global = -3.5152e-16, cumulative = 1.67318e-15
DILUPBiCG:  Solving for epsilon, Initial residual = 0.0137178, Final residual = 4.11914e-05, No Iterations 2
DILUPBiCG:  Solving for k, Initial residual = 0.0450587, Final residual = 9.24663e-05, No Iterations 2
Before T+T solve
BiCG:  Solving for T+T, Initial residual = 0.00130972, Final residual = 9.79171e-05, No Iterations 2
Tres = -0.725829
TsRes = -0.0563465
ExecutionTime = 0.12 s



Wall heat fluxes [W]
movingWall 0 0 0 0
left 0.133097 -1.38744e-16 0 0.133097
right -0.858604 -1.9466e-14 0 -0.858604
bottom 0 0 0 0
frontAndBack 0 0 0 0
sum -0.725506 -1.96048e-14 0 -0.725506


Wall heat fluxes [W]
topAndBottom 0 0 0 0
left 0.966226 0 0 0.966226
right -0.915273 0 0 -0.915273
frontAndBack 0 0 0 0
sum 0.0509534 0 0 0.0509534

Time = 32

DILUPBiCG:  Solving for Ux, Initial residual = 0.0101468, Final residual = 8.86532e-05, No Iterations 1
DILUPBiCG:  Solving for Uy, Initial residual = 0.0179876, Final residual = 1.29444e-05, No Iterations 2
DICPCG:  Solving for p_rgh, Initial residual = 0.0249743, Final residual = 0.000201952, No Iterations 6
time step continuity errors : sum local = 0.000835203, global = -1.16202e-16, cumulative = 1.55698e-15
DILUPBiCG:  Solving for epsilon, Initial residual = 0.0128636, Final residual = 1.75192e-05, No Iterations 2
DILUPBiCG:  Solving for k, Initial residual = 0.0425573, Final residual = 7.01851e-05, No Iterations 2
Before T+T solve
BiCG:  Solving for T+T, Initial residual = 0.00127151, Final residual = 9.26723e-05, No Iterations 2
Tres = -0.711066
TsRes = -0.0547238
ExecutionTime = 0.12 s



Wall heat fluxes [W]
movingWall 0 0 0 0
left 0.146494 6.41691e-16 0 0.146494
right -0.857271 -5.56288e-15 0 -0.857271
bottom 0 0 0 0
frontAndBack 0 0 0 0
sum -0.710777 -4.92118e-15 0 -0.710777


Wall heat fluxes [W]
topAndBottom 0 0 0 0
left 0.953628 0 0 0.953628
right -0.912284 0 0 -0.912284
frontAndBack 0 0 0 0
sum 0.0413438 0 0 0.0413438

Time = 33

DILUPBiCG:  Solving for Ux, Initial residual = 0.00959848, Final residual = 8.00102e-05, No Iterations 1
DILUPBiCG:  Solving for Uy, Initial residual = 0.0174884, Final residual = 2.28551e-05, No Iterations 2
DICPCG:  Solving for p_rgh, Initial residual = 0.0242554, Final residual = 0.000169546, No Iterations 11
time step continuity errors : sum local = 0.000533435, global = 2.53051e-16, cumulative = 1.81003e-15
DILUPBiCG:  Solving for epsilon, Initial residual = 0.0121942, Final residual = 1.18061e-05, No Iterations 2
DILUPBiCG:  Solving for k, Initial residual = 0.0401197, Final residual = 6.77968e-05, No Iterations 2
Before T+T solve
BiCG:  Solving for T+T, Initial residual = 0.00124283, Final residual = 9.17192e-05, No Iterations 2
Tres = -0.696663
TsRes = -0.0534153
ExecutionTime = 0.13 s



Wall heat fluxes [W]
movingWall 0 0 0 0
left 0.15931 -1.05792e-15 0 0.15931
right -0.855679 1.48352e-14 0 -0.855679
bottom 0 0 0 0
frontAndBack 0 0 0 0
sum -0.696369 1.37773e-14 0 -0.696369


Wall heat fluxes [W]
topAndBottom 0 0 0 0
left 0.953917 0 0 0.953917
right -0.909388 0 0 -0.909388
frontAndBack 0 0 0 0
sum 0.0445283 0 0 0.0445283

Time = 34

DILUPBiCG:  Solving for Ux, Initial residual = 0.0091723, Final residual = 8.20746e-05, No Iterations 1
DILUPBiCG:  Solving for Uy, Initial residual = 0.0174776, Final residual = 4.98559e-05, No Iterations 2
DICPCG:  Solving for p_rgh, Initial residual = 0.0235476, Final residual = 0.00022448, No Iterations 6
time step continuity errors : sum local = 0.00100689, global = -2.13479e-16, cumulative = 1.59655e-15
DILUPBiCG:  Solving for epsilon, Initial residual = 0.0115381, Final residual = 9.09186e-06, No Iterations 2
DILUPBiCG:  Solving for k, Initial residual = 0.037992, Final residual = 6.1595e-05, No Iterations 2
Before T+T solve
BiCG:  Solving for T+T, Initial residual = 0.00122428, Final residual = 0.000121863, No Iterations 1
Tres = -0.682227
TsRes = -0.0543233
ExecutionTime = 0.13 s



Wall heat fluxes [W]
movingWall 0 0 0 0
left 0.171656 3.4686e-17 0 0.171656
right -0.853765 -1.20616e-14 0 -0.853765
bottom 0 0 0 0
frontAndBack 0 0 0 0
sum -0.682109 -1.20269e-14 0 -0.682109


Wall heat fluxes [W]
topAndBottom 0 0 0 0
left 0.893108 0 0 0.893108
right -0.908206 0 0 -0.908206
frontAndBack 0 0 0 0
sum -0.0150983 0 0 -0.0150983

Time = 35

DILUPBiCG:  Solving for Ux, Initial residual = 0.00888629, Final residual = 8.84348e-05, No Iterations 1
DILUPBiCG:  Solving for Uy, Initial residual = 0.0179036, Final residual = 0.000176868, No Iterations 1
DICPCG:  Solving for p_rgh, Initial residual = 0.0227148, Final residual = 0.000141633, No Iterations 11
time step continuity errors : sum local = 0.000439208, global = -1.12496e-16, cumulative = 1.48406e-15
DILUPBiCG:  Solving for epsilon, Initial residual = 0.0109179, Final residual = 7.54193e-06, No Iterations 2
DILUPBiCG:  Solving for k, Initial residual = 0.0359868, Final residual = 5.56265e-05, No Iterations 2
Before T+T solve
BiCG:  Solving for T+T, Initial residual = 0.00121303, Final residual = 9.78034e-05, No Iterations 2
Tres = -0.669082
TsRes = -0.0533654
ExecutionTime = 0.13 s



Wall heat fluxes [W]
movingWall 0 0 0 0
left 0.182826 -1.52618e-15 0 0.182826
right -0.851559 -1.85695e-15 0 -0.851559
bottom 0 0 0 0
frontAndBack 0 0 0 0
sum -0.668733 -3.38313e-15 0 -0.668733


Wall heat fluxes [W]
topAndBottom 0 0 0 0
left 0.967833 0 0 0.967833
right -0.905273 0 0 -0.905273
frontAndBack 0 0 0 0
sum 0.06256 0 0 0.06256

Time = 36

DILUPBiCG:  Solving for Ux, Initial residual = 0.00890281, Final residual = 2.4154e-06, No Iterations 2
DILUPBiCG:  Solving for Uy, Initial residual = 0.01691, Final residual = 1.33588e-05, No Iterations 2
DICPCG:  Solving for p_rgh, Initial residual = 0.0212659, Final residual = 0.000121244, No Iterations 11
time step continuity errors : sum local = 0.000371348, global = -6.90861e-17, cumulative = 1.41497e-15
DILUPBiCG:  Solving for epsilon, Initial residual = 0.0103559, Final residual = 6.82982e-06, No Iterations 2
DILUPBiCG:  Solving for k, Initial residual = 0.0339381, Final residual = 5.30044e-05, No Iterations 2
Before T+T solve
BiCG:  Solving for T+T, Initial residual = 0.00119638, Final residual = 0.000117829, No Iterations 1
Tres = -0.655949
TsRes = -0.0548161
ExecutionTime = 0.14 s



Wall heat fluxes [W]
movingWall 0 0 0 0
left 0.193373 -1.30072e-15 0 0.193373
right -0.849209 -1.85243e-15 0 -0.849209
bottom 0 0 0 0
frontAndBack 0 0 0 0
sum -0.655837 -3.15315e-15 0 -0.655837


Wall heat fluxes [W]
topAndBottom 0 0 0 0
left 0.886672 0 0 0.886672
right -0.904138 0 0 -0.904138
frontAndBack 0 0 0 0
sum -0.0174656 0 0 -0.0174656

Time = 37

DILUPBiCG:  Solving for Ux, Initial residual = 0.00894607, Final residual = 5.13126e-06, No Iterations 2
DILUPBiCG:  Solving for Uy, Initial residual = 0.0167994, Final residual = 7.30829e-06, No Iterations 2
DICPCG:  Solving for p_rgh, Initial residual = 0.0208731, Final residual = 0.000185204, No Iterations 6
time step continuity errors : sum local = 0.000846395, global = -1.58157e-16, cumulative = 1.25681e-15
DILUPBiCG:  Solving for epsilon, Initial residual = 0.00980229, Final residual = 6.40319e-06, No Iterations 2
DILUPBiCG:  Solving for k, Initial residual = 0.0319191, Final residual = 5.24504e-05, No Iterations 2
Before T+T solve
BiCG:  Solving for T+T, Initial residual = 0.00118692, Final residual = 0.000104049, No Iterations 2
Tres = -0.64446
TsRes = -0.0540442
ExecutionTime = 0.14 s



Wall heat fluxes [W]
movingWall 0 0 0 0
left 0.202501 -9.01836e-16 0 0.202501
right -0.846563 -6.49216e-15 0 -0.846563
bottom 0 0 0 0
frontAndBack 0 0 0 0
sum -0.644062 -7.39399e-15 0 -0.644062


Wall heat fluxes [W]
topAndBottom 0 0 0 0
left 0.979125 0 0 0.979125
right -0.901005 0 0 -0.901005
frontAndBack 0 0 0 0
sum 0.07812 0 0 0.07812

Time = 38

DILUPBiCG:  Solving for Ux, Initial residual = 0.00909851, Final residual = 8.77352e-06, No Iterations 2
DILUPBiCG:  Solving for Uy, Initial residual = 0.0161244, Final residual = 2.57622e-06, No Iterations 2
DICPCG:  Solving for p_rgh, Initial residual = 0.0191357, Final residual = 0.000145647, No Iterations 10
time step continuity errors : sum local = 0.000450529, global = 1.42937e-16, cumulative = 1.39975e-15
DILUPBiCG:  Solving for epsilon, Initial residual = 0.00928921, Final residual = 5.97869e-06, No Iterations 2
DILUPBiCG:  Solving for k, Initial residual = 0.0300009, Final residual = 5.43698e-05, No Iterations 2
Before T+T solve
BiCG:  Solving for T+T, Initial residual = 0.0011732, Final residual = 0.000114522, No Iterations 1
Tres = -0.632899
TsRes = -0.0559818
ExecutionTime = 0.14 s



Wall heat fluxes [W]
movingWall 0 0 0 0
left 0.211002 1.07527e-15 0 0.211002
right -0.843791 7.41928e-15 0 -0.843791
bottom 0 0 0 0
frontAndBack 0 0 0 0
sum -0.632789 8.49455e-15 0 -0.632789


Wall heat fluxes [W]
topAndBottom 0 0 0 0
left 0.880331 0 0 0.880331
right -0.899883 0 0 -0.899883
frontAndBack 0 0 0 0
sum -0.0195516 0 0 -0.0195516

Time = 39

DILUPBiCG:  Solving for Ux, Initial residual = 0.00910888, Final residual = 1.60484e-06, No Iterations 2
DILUPBiCG:  Solving for Uy, Initial residual = 0.0158684, Final residual = 2.14696e-06, No Iterations 2
DICPCG:  Solving for p_rgh, Initial residual = 0.0188318, Final residual = 0.000119465, No Iterations 10
time step continuity errors : sum local = 0.000367157, global = 2.11913e-18, cumulative = 1.40187e-15
DILUPBiCG:  Solving for epsilon, Initial residual = 0.00878094, Final residual = 5.57295e-06, No Iterations 2
DILUPBiCG:  Solving for k, Initial residual = 0.0281796, Final residual = 5.53474e-05, No Iterations 2
Before T+T solve
BiCG:  Solving for T+T, Initial residual = 0.00116761, Final residual = 0.000111515, No Iterations 2
Tres = -0.623037
TsRes = -0.0551165
ExecutionTime = 0.15 s



Wall heat fluxes [W]
movingWall 0 0 0 0
left 0.218174 7.28406e-16 0 0.218174
right -0.840739 1.46272e-18 0 -0.840739
bottom 0 0 0 0
frontAndBack 0 0 0 0
sum -0.622565 7.29869e-16 0 -0.622565


Wall heat fluxes [W]
topAndBottom 0 0 0 0
left 0.998052 0 0 0.998052
right -0.896327 0 0 -0.896327
frontAndBack 0 0 0 0
sum 0.101725 0 0 0.101725

Time = 40

DILUPBiCG:  Solving for Ux, Initial residual = 0.00923177, Final residual = 1.07048e-06, No Iterations 2
DILUPBiCG:  Solving for Uy, Initial residual = 0.0149125, Final residual = 1.66989e-06, No Iterations 2
DICPCG:  Solving for p_rgh, Initial residual = 0.0172785, Final residual = 0.000145956, No Iterations 4
time step continuity errors : sum local = 0.000629462, global = 1.39628e-16, cumulative = 1.5415e-15
DILUPBiCG:  Solving for epsilon, Initial residual = 0.00830161, Final residual = 5.24611e-06, No Iterations 2
DILUPBiCG:  Solving for k, Initial residual = 0.0264458, Final residual = 5.63052e-05, No Iterations 2
Before T+T solve
BiCG:  Solving for T+T, Initial residual = 0.00115481, Final residual = 0.000112654, No Iterations 1
Tres = -0.612953
TsRes = -0.0574865
ExecutionTime = 0.15 s



Wall heat fluxes [W]
movingWall 0 0 0 0
left 0.224758 2.2199e-15 0 0.224758
right -0.837607 5.5624e-15 0 -0.837607
bottom 0 0 0 0
frontAndBack 0 0 0 0
sum -0.612849 7.78231e-15 0 -0.612849


Wall heat fluxes [W]
topAndBottom 0 0 0 0
left 0.872105 0 0 0.872105
right -0.895197 0 0 -0.895197
frontAndBack 0 0 0 0
sum -0.0230928 0 0 -0.0230928

Time = 41

DILUPBiCG:  Solving for Ux, Initial residual = 0.00896647, Final residual = 8.99832e-07, No Iterations 2
DILUPBiCG:  Solving for Uy, Initial residual = 0.0149661, Final residual = 1.4417e-06, No Iterations 2
DICPCG:  Solving for p_rgh, Initial residual = 0.017429, Final residual = 9.14063e-05, No Iterations 10
time step continuity errors : sum local = 0.00028426, global = -9.3306e-17, cumulative = 1.44819e-15
DILUPBiCG:  Solving for epsilon, Initial residual = 0.00778562, Final residual = 4.97515e-06, No Iterations 2
DILUPBiCG:  Solving for k, Initial residual = 0.0247912, Final residual = 5.48563e-05, No Iterations 2
Before T+T solve
BiCG:  Solving for T+T, Initial residual = 0.00115235, Final residual = 4.00444e-05, No Iterations 3
Tres = -0.605069
TsRes = -0.0471554
ExecutionTime = 0.15 s



Wall heat fluxes [W]
movingWall 0 0 0 0
left 0.230409 -2.70551e-15 0 0.230409
right -0.834003 -7.22787e-19 0 -0.834003
bottom 0 0 0 0
frontAndBack 0 0 0 0
sum -0.603594 -2.70623e-15 0 -0.603594


Wall heat fluxes [W]
topAndBottom 0 0 0 0
left 1.32597 0 0 1.32597
right -0.882634 0 0 -0.882634
frontAndBack 0 0 0 0
sum 0.443337 0 0 0.443337

Time = 42

DILUPBiCG:  Solving for Ux, Initial residual = 0.00910473, Final residual = 9.96541e-07, No Iterations 2
DILUPBiCG:  Solving for Uy, Initial residual = 0.0141587, Final residual = 1.24314e-06, No Iterations 2
DICPCG:  Solving for p_rgh, Initial residual = 0.0165561, Final residual = 0.000138475, No Iterations 5
time step continuity errors : sum local = 0.000549698, global = -2.2764e-16, cumulative = 1.22055e-15
DILUPBiCG:  Solving for epsilon, Initial residual = 0.00731527, Final residual = 4.7096e-06, No Iterations 2
DILUPBiCG:  Solving for k, Initial residual = 0.023252, Final residual = 5.37673e-05, No Iterations 2
Before T+T solve
BiCG:  Solving for T+T, Initial residual = 0.00112321, Final residual = 8.78409e-05, No Iterations 1
Tres = -0.596067
TsRes = -0.0499092
ExecutionTime = 0.15 s



Wall heat fluxes [W]
movingWall 0 0 0 0
left 0.235475 -2.77488e-16 0 0.235475
right -0.831491 -9.28449e-15 0 -0.831491
bottom 0 0 0 0
frontAndBack 0 0 0 0
sum -0.596017 -9.56198e-15 0 -0.596017


Wall heat fluxes [W]
topAndBottom 0 0 0 0
left 0.848327 0 0 0.848327
right -0.881451 0 0 -0.881451
frontAndBack 0 0 0 0
sum -0.0331239 0 0 -0.0331239

Time = 43

DILUPBiCG:  Solving for Ux, Initial residual = 0.00822818, Final residual = 1.02092e-06, No Iterations 2
DILUPBiCG:  Solving for Uy, Initial residual = 0.0137817, Final residual = 1.14114e-06, No Iterations 2
DICPCG:  Solving for p_rgh, Initial residual = 0.0166323, Final residual = 0.000130718, No Iterations 5
time step continuity errors : sum local = 0.000513913, global = -2.04744e-16, cumulative = 1.01581e-15
DILUPBiCG:  Solving for epsilon, Initial residual = 0.00685767, Final residual = 4.45917e-06, No Iterations 2
DILUPBiCG:  Solving for k, Initial residual = 0.0217542, Final residual = 5.24562e-05, No Iterations 2
Before T+T solve
BiCG:  Solving for T+T, Initial residual = 0.00112497, Final residual = 0.000107556, No Iterations 1
Tres = -0.587681
TsRes = -0.0525567
ExecutionTime = 0.16 s



Wall heat fluxes [W]
movingWall 0 0 0 0
left 0.239996 1.00589e-15 0 0.239996
right -0.827505 -1.11376e-14 0 -0.827505
bottom 0 0 0 0
frontAndBack 0 0 0 0
sum -0.587509 -1.01317e-14 0 -0.587509


Wall heat fluxes [W]
topAndBottom 0 0 0 0
left 0.884931 0 0 0.884931
right -0.880234 0 0 -0.880234
frontAndBack 0 0 0 0
sum 0.00469769 0 0 0.00469769

Time = 44

DILUPBiCG:  Solving for Ux, Initial residual = 0.00879054, Final residual = 8.64847e-05, No Iterations 1
DILUPBiCG:  Solving for Uy, Initial residual = 0.013287, Final residual = 1.15006e-06, No Iterations 2
DICPCG:  Solving for p_rgh, Initial residual = 0.0167984, Final residual = 0.000111359, No Iterations 5
time step continuity errors : sum local = 0.000420434, global = -1.36319e-16, cumulative = 8.7949e-16
DILUPBiCG:  Solving for epsilon, Initial residual = 0.0064085, Final residual = 4.21247e-06, No Iterations 2
DILUPBiCG:  Solving for k, Initial residual = 0.0203562, Final residual = 4.95602e-05, No Iterations 2
Before T+T solve
BiCG:  Solving for T+T, Initial residual = 0.00112048, Final residual = 0.000110777, No Iterations 1
Tres = -0.579638
TsRes = -0.0553361
ExecutionTime = 0.16 s



Wall heat fluxes [W]
movingWall 0 0 0 0
left 0.244061 -2.11585e-15 0 0.244061
right -0.823558 -4.64479e-15 0 -0.823558
bottom 0 0 0 0
frontAndBack 0 0 0 0
sum -0.579496 -6.76064e-15 0 -0.579496


Wall heat fluxes [W]
topAndBottom 0 0 0 0
left 0.870694 0 0 0.870694
right -0.879035 0 0 -0.879035
frontAndBack 0 0 0 0
sum -0.00834152 0 0 -0.00834152

Time = 45

DILUPBiCG:  Solving for Ux, Initial residual = 0.00850101, Final residual = 8.13586e-05, No Iterations 1
DILUPBiCG:  Solving for Uy, Initial residual = 0.0126976, Final residual = 1.2713e-06, No Iterations 2
DICPCG:  Solving for p_rgh, Initial residual = 0.0169566, Final residual = 0.000118795, No Iterations 5
time step continuity errors : sum local = 0.000405252, global = 1.69804e-16, cumulative = 1.04929e-15
DILUPBiCG:  Solving for epsilon, Initial residual = 0.00611317, Final residual = 3.97255e-06, No Iterations 2
DILUPBiCG:  Solving for k, Initial residual = 0.0190868, Final residual = 4.651e-05, No Iterations 2
Before T+T solve
BiCG:  Solving for T+T, Initial residual = 0.00111859, Final residual = 4.54282e-05, No Iterations 3
Tres = -0.573224
TsRes = -0.0457762
ExecutionTime = 0.16 s



Wall heat fluxes [W]
movingWall 0 0 0 0
left 0.24778 1.38744e-15 0 0.24778
right -0.819573 6.49679e-15 0 -0.819573
bottom 0 0 0 0
frontAndBack 0 0 0 0
sum -0.571793 7.88423e-15 0 -0.571793


Wall heat fluxes [W]
topAndBottom 0 0 0 0
left 1.29657 0 0 1.29657
right -0.86678 0 0 -0.86678
frontAndBack 0 0 0 0
sum 0.429788 0 0 0.429788

Time = 46

DILUPBiCG:  Solving for Ux, Initial residual = 0.00831296, Final residual = 7.63519e-05, No Iterations 1
DILUPBiCG:  Solving for Uy, Initial residual = 0.0118602, Final residual = 1.51068e-06, No Iterations 2
DICPCG:  Solving for p_rgh, Initial residual = 0.0166319, Final residual = 0.000164771, No Iterations 5
time step continuity errors : sum local = 0.000759702, global = 6.28657e-17, cumulative = 1.11216e-15
DILUPBiCG:  Solving for epsilon, Initial residual = 0.00584796, Final residual = 3.75516e-06, No Iterations 2
DILUPBiCG:  Solving for k, Initial residual = 0.0180746, Final residual = 4.4342e-05, No Iterations 2
Before T+T solve
BiCG:  Solving for T+T, Initial residual = 0.00109315, Final residual = 8.66641e-05, No Iterations 1
Tres = -0.56553
TsRes = -0.0489075
ExecutionTime = 0.17 s



Wall heat fluxes [W]
movingWall 0 0 0 0
left 0.251286 -1.90773e-15 0 0.251286
right -0.816763 5.57211e-15 0 -0.816763
bottom 0 0 0 0
frontAndBack 0 0 0 0
sum -0.565477 3.66438e-15 0 -0.565477


Wall heat fluxes [W]
topAndBottom 0 0 0 0
left 0.834483 0 0 0.834483
right -0.865724 0 0 -0.865724
frontAndBack 0 0 0 0
sum -0.031241 0 0 -0.031241

Time = 47

DILUPBiCG:  Solving for Ux, Initial residual = 0.00739313, Final residual = 7.30699e-05, No Iterations 1
DILUPBiCG:  Solving for Uy, Initial residual = 0.0114786, Final residual = 1.99608e-06, No Iterations 2
DICPCG:  Solving for p_rgh, Initial residual = 0.0173774, Final residual = 0.000160403, No Iterations 10
time step continuity errors : sum local = 0.000512533, global = -4.75133e-17, cumulative = 1.06465e-15
DILUPBiCG:  Solving for epsilon, Initial residual = 0.005564, Final residual = 3.52242e-06, No Iterations 2
DILUPBiCG:  Solving for k, Initial residual = 0.0171427, Final residual = 4.17712e-05, No Iterations 2
Before T+T solve
BiCG:  Solving for T+T, Initial residual = 0.00109563, Final residual = 0.000107481, No Iterations 1
Tres = -0.5582
TsRes = -0.0517273
ExecutionTime = 0.17 s



Wall heat fluxes [W]
movingWall 0 0 0 0
left 0.254658 -1.38744e-16 0 0.254658
right -0.812691 -1.85584e-15 0 -0.812691
bottom 0 0 0 0
frontAndBack 0 0 0 0
sum -0.558033 -1.99458e-15 0 -0.558033


Wall heat fluxes [W]
topAndBottom 0 0 0 0
left 0.868424 0 0 0.868424
right -0.864585 0 0 -0.864585
frontAndBack 0 0 0 0
sum 0.00383915 0 0 0.00383915

Time = 48

DILUPBiCG:  Solving for Ux, Initial residual = 0.00794814, Final residual = 6.42921e-05, No Iterations 1
DILUPBiCG:  Solving for Uy, Initial residual = 0.0109734, Final residual = 2.34864e-06, No Iterations 2
DICPCG:  Solving for p_rgh, Initial residual = 0.0177518, Final residual = 0.000161731, No Iterations 6
time step continuity errors : sum local = 0.000799985, global = -3.9044e-17, cumulative = 1.0256e-15
DILUPBiCG:  Solving for epsilon, Initial residual = 0.00527083, Final residual = 3.29931e-06, No Iterations 2
DILUPBiCG:  Solving for k, Initial residual = 0.0161932, Final residual = 3.99728e-05, No Iterations 2
Before T+T solve
BiCG:  Solving for T+T, Initial residual = 0.00109257, Final residual = 4.94117e-05, No Iterations 3
Tres = -0.552096
TsRes = -0.0423996
ExecutionTime = 0.17 s



Wall heat fluxes [W]
movingWall 0 0 0 0
left 0.258046 2.94831e-15 0 0.258046
right -0.808835 -5.57448e-15 0 -0.808835
bottom 0 0 0 0
frontAndBack 0 0 0 0
sum -0.550789 -2.62617e-15 0 -0.550789


Wall heat fluxes [W]
topAndBottom 0 0 0 0
left 1.24448 0 0 1.24448
right -0.852541 0 0 -0.852541
frontAndBack 0 0 0 0
sum 0.391941 0 0 0.391941

Time = 49

DILUPBiCG:  Solving for Ux, Initial residual = 0.00769934, Final residual = 6.31571e-05, No Iterations 1
DILUPBiCG:  Solving for Uy, Initial residual = 0.0100539, Final residual = 4.99798e-06, No Iterations 2
DICPCG:  Solving for p_rgh, Initial residual = 0.0177318, Final residual = 0.00012305, No Iterations 10
time step continuity errors : sum local = 0.000397753, global = 1.71657e-16, cumulative = 1.19726e-15
DILUPBiCG:  Solving for epsilon, Initial residual = 0.00495787, Final residual = 3.09804e-06, No Iterations 2
DILUPBiCG:  Solving for k, Initial residual = 0.015278, Final residual = 3.8211e-05, No Iterations 2
Before T+T solve
BiCG:  Solving for T+T, Initial residual = 0.0010678, Final residual = 8.38854e-05, No Iterations 1
Tres = -0.544818
TsRes = -0.0454264
ExecutionTime = 0.18 s



Wall heat fluxes [W]
movingWall 0 0 0 0
left 0.261357 4.43981e-15 0 0.261357
right -0.806116 1.85772e-15 0 -0.806116
bottom 0 0 0 0
frontAndBack 0 0 0 0
sum -0.544759 6.29753e-15 0 -0.544759


Wall heat fluxes [W]
topAndBottom 0 0 0 0
left 0.825656 0 0 0.825656
right -0.851601 0 0 -0.851601
frontAndBack 0 0 0 0
sum -0.0259458 0 0 -0.0259458

Time = 50

DILUPBiCG:  Solving for Ux, Initial residual = 0.00685292, Final residual = 5.79921e-05, No Iterations 1
DILUPBiCG:  Solving for Uy, Initial residual = 0.00986366, Final residual = 3.42178e-06, No Iterations 2
DICPCG:  Solving for p_rgh, Initial residual = 0.0183159, Final residual = 0.000123581, No Iterations 10
time step continuity errors : sum local = 0.000400949, global = 1.4704e-16, cumulative = 1.3443e-15
DILUPBiCG:  Solving for epsilon, Initial residual = 0.00465227, Final residual = 2.87921e-06, No Iterations 2
DILUPBiCG:  Solving for k, Initial residual = 0.0143263, Final residual = 3.62883e-05, No Iterations 2
Before T+T solve
BiCG:  Solving for T+T, Initial residual = 0.00106799, Final residual = 0.00010376, No Iterations 1
Tres = -0.537669
TsRes = -0.0481125
ExecutionTime = 0.18 s



Wall heat fluxes [W]
movingWall 0 0 0 0
left 0.264805 -1.38744e-16 0 0.264805
right -0.80232 9.2955e-15 0 -0.80232
bottom 0 0 0 0
frontAndBack 0 0 0 0
sum -0.537514 9.15676e-15 0 -0.537514


Wall heat fluxes [W]
topAndBottom 0 0 0 0
left 0.853868 0 0 0.853868
right -0.850587 0 0 -0.850587
frontAndBack 0 0 0 0
sum 0.00328124 0 0 0.00328124

Time = 51

DILUPBiCG:  Solving for Ux, Initial residual = 0.00743974, Final residual = 5.88905e-05, No Iterations 1
DILUPBiCG:  Solving for Uy, Initial residual = 0.00957355, Final residual = 4.78648e-06, No Iterations 2
DICPCG:  Solving for p_rgh, Initial residual = 0.0187745, Final residual = 0.000159951, No Iterations 6
time step continuity errors : sum local = 0.000833955, global = 2.93285e-16, cumulative = 1.63758e-15
DILUPBiCG:  Solving for epsilon, Initial residual = 0.00439555, Final residual = 2.65644e-06, No Iterations 2
DILUPBiCG:  Solving for k, Initial residual = 0.0134095, Final residual = 3.4622e-05, No Iterations 2
Before T+T solve
BiCG:  Solving for T+T, Initial residual = 0.00106449, Final residual = 4.85879e-05, No Iterations 3
Tres = -0.531553
TsRes = -0.0396963
ExecutionTime = 0.18 s



Wall heat fluxes [W]
movingWall 0 0 0 0
left 0.268446 6.13942e-15 0 0.268446
right -0.79878 6.50853e-15 0 -0.79878
bottom 0 0 0 0
frontAndBack 0 0 0 0
sum -0.530334 1.2648e-14 0 -0.530334


Wall heat fluxes [W]
topAndBottom 0 0 0 0
left 1.2052 0 0 1.2052
right -0.839695 0 0 -0.839695
frontAndBack 0 0 0 0
sum 0.365509 0 0 0.365509

Time = 52

DILUPBiCG:  Solving for Ux, Initial residual = 0.00716889, Final residual = 5.80123e-05, No Iterations 1
DILUPBiCG:  Solving for Uy, Initial residual = 0.00893595, Final residual = 4.57752e-08, No Iterations 3
DICPCG:  Solving for p_rgh, Initial residual = 0.0185366, Final residual = 0.000101655, No Iterations 10
time step continuity errors : sum local = 0.000334244, global = 7.54389e-17, cumulative = 1.71302e-15
DILUPBiCG:  Solving for epsilon, Initial residual = 0.00418117, Final residual = 2.43069e-06, No Iterations 2
DILUPBiCG:  Solving for k, Initial residual = 0.0125977, Final residual = 3.28781e-05, No Iterations 2
Before T+T solve
BiCG:  Solving for T+T, Initial residual = 0.00103968, Final residual = 8.18365e-05, No Iterations 1
Tres = -0.524294
TsRes = -0.0423797
ExecutionTime = 0.19 s



Wall heat fluxes [W]
movingWall 0 0 0 0
left 0.27212 7.28406e-16 0 0.27212
right -0.79636 1.85624e-15 0 -0.79636
bottom 0 0 0 0
frontAndBack 0 0 0 0
sum -0.524239 2.58464e-15 0 -0.524239


Wall heat fluxes [W]
topAndBottom 0 0 0 0
left 0.814494 0 0 0.814494
right -0.838794 0 0 -0.838794
frontAndBack 0 0 0 0
sum -0.0242999 0 0 -0.0242999

Time = 53

DILUPBiCG:  Solving for Ux, Initial residual = 0.00642594, Final residual = 5.30716e-05, No Iterations 1
DILUPBiCG:  Solving for Uy, Initial residual = 0.00879091, Final residual = 5.13012e-06, No Iterations 2
DICPCG:  Solving for p_rgh, Initial residual = 0.0188767, Final residual = 0.000182145, No Iterations 9
time step continuity errors : sum local = 0.000603489, global = -3.05329e-16, cumulative = 1.40769e-15
DILUPBiCG:  Solving for epsilon, Initial residual = 0.00397953, Final residual = 2.19284e-06, No Iterations 2
DILUPBiCG:  Solving for k, Initial residual = 0.0118067, Final residual = 3.16126e-05, No Iterations 2
Before T+T solve
BiCG:  Solving for T+T, Initial residual = 0.00103847, Final residual = 0.000100314, No Iterations 1
Tres = -0.51709
TsRes = -0.0447016
ExecutionTime = 0.19 s



Wall heat fluxes [W]
movingWall 0 0 0 0
left 0.276035 -1.38744e-15 0 0.276035
right -0.792982 -1.48724e-14 0 -0.792982
bottom 0 0 0 0
frontAndBack 0 0 0 0
sum -0.516947 -1.62599e-14 0 -0.516947


Wall heat fluxes [W]
topAndBottom 0 0 0 0
left 0.840727 0 0 0.840727
right -0.837826 0 0 -0.837826
frontAndBack 0 0 0 0
sum 0.00290051 0 0 0.00290051

Time = 54

DILUPBiCG:  Solving for Ux, Initial residual = 0.00699779, Final residual = 5.59304e-05, No Iterations 1
DILUPBiCG:  Solving for Uy, Initial residual = 0.00868223, Final residual = 6.12999e-06, No Iterations 2
DICPCG:  Solving for p_rgh, Initial residual = 0.0188943, Final residual = 0.000157692, No Iterations 6
time step continuity errors : sum local = 0.000829622, global = 3.40798e-16, cumulative = 1.74849e-15
DILUPBiCG:  Solving for epsilon, Initial residual = 0.00376341, Final residual = 1.98243e-06, No Iterations 2
DILUPBiCG:  Solving for k, Initial residual = 0.010993, Final residual = 3.04689e-05, No Iterations 2
Before T+T solve
BiCG:  Solving for T+T, Initial residual = 0.00103473, Final residual = 0.000102369, No Iterations 2
Tres = -0.510235
TsRes = -0.0441653
ExecutionTime = 0.19 s



Wall heat fluxes [W]
movingWall 0 0 0 0
left 0.28021 1.7343e-15 0 0.28021
right -0.790039 1.6736e-14 0 -0.790039
bottom 0 0 0 0
frontAndBack 0 0 0 0
sum -0.509829 1.84703e-14 0 -0.509829


Wall heat fluxes [W]
topAndBottom 0 0 0 0
left 0.925111 0 0 0.925111
right -0.83461 0 0 -0.83461
frontAndBack 0 0 0 0
sum 0.0905018 0 0 0.0905018

Time = 55

DILUPBiCG:  Solving for Ux, Initial residual = 0.00674536, Final residual = 5.43824e-05, No Iterations 1
DILUPBiCG:  Solving for Uy, Initial residual = 0.0077377, Final residual = 1.1977e-07, No Iterations 3
DICPCG:  Solving for p_rgh, Initial residual = 0.0177502, Final residual = 0.000174451, No Iterations 9
time step continuity errors : sum local = 0.000581905, global = 5.16161e-17, cumulative = 1.80011e-15
DILUPBiCG:  Solving for epsilon, Initial residual = 0.00356387, Final residual = 1.82725e-06, No Iterations 2
DILUPBiCG:  Solving for k, Initial residual = 0.0103434, Final residual = 3.054e-05, No Iterations 2
Before T+T solve
BiCG:  Solving for T+T, Initial residual = 0.00102514, Final residual = 0.000100151, No Iterations 1
Tres = -0.502906
TsRes = -0.0463298
ExecutionTime = 0.19 s



Wall heat fluxes [W]
movingWall 0 0 0 0
left 0.284458 -2.94831e-15 0 0.284458
right -0.787291 8.36969e-15 0 -0.787291
bottom 0 0 0 0
frontAndBack 0 0 0 0
sum -0.502833 5.42138e-15 0 -0.502833


Wall heat fluxes [W]
topAndBottom 0 0 0 0
left 0.811815 0 0 0.811815
right -0.833694 0 0 -0.833694
frontAndBack 0 0 0 0
sum -0.0218791 0 0 -0.0218791

Time = 56

DILUPBiCG:  Solving for Ux, Initial residual = 0.00647967, Final residual = 5.25482e-05, No Iterations 1
DILUPBiCG:  Solving for Uy, Initial residual = 0.00803221, Final residual = 9.263e-06, No Iterations 2
DICPCG:  Solving for p_rgh, Initial residual = 0.0179051, Final residual = 0.000113718, No Iterations 9
time step continuity errors : sum local = 0.000389664, global = -2.61654e-16, cumulative = 1.53845e-15
DILUPBiCG:  Solving for epsilon, Initial residual = 0.00341344, Final residual = 1.6579e-06, No Iterations 2
DILUPBiCG:  Solving for k, Initial residual = 0.0097383, Final residual = 3.09915e-05, No Iterations 2
Before T+T solve
BiCG:  Solving for T+T, Initial residual = 0.0010202, Final residual = 3.51981e-05, No Iterations 3
Tres = -0.496668
TsRes = -0.0379874
ExecutionTime = 0.2 s



Wall heat fluxes [W]
movingWall 0 0 0 0
left 0.288935 1.14464e-15 0 0.288935
right -0.784413 -1.67391e-14 0 -0.784413
bottom 0 0 0 0
frontAndBack 0 0 0 0
sum -0.495479 -1.55945e-14 0 -0.495479


Wall heat fluxes [W]
topAndBottom 0 0 0 0
left 1.18097 0 0 1.18097
right -0.82359 0 0 -0.82359
frontAndBack 0 0 0 0
sum 0.357376 0 0 0.357376

Time = 57

DILUPBiCG:  Solving for Ux, Initial residual = 0.00649128, Final residual = 5.16831e-05, No Iterations 1
DILUPBiCG:  Solving for Uy, Initial residual = 0.00753691, Final residual = 2.86914e-05, No Iterations 2
DICPCG:  Solving for p_rgh, Initial residual = 0.0172412, Final residual = 0.000129418, No Iterations 6
time step continuity errors : sum local = 0.000668866, global = -1.84759e-16, cumulative = 1.35369e-15
DILUPBiCG:  Solving for epsilon, Initial residual = 0.00324593, Final residual = 1.53953e-06, No Iterations 2
DILUPBiCG:  Solving for k, Initial residual = 0.00914916, Final residual = 3.43142e-05, No Iterations 2
Before T+T solve
BiCG:  Solving for T+T, Initial residual = 0.000993418, Final residual = 8.01603e-05, No Iterations 1
Tres = -0.489181
TsRes = -0.0398983
ExecutionTime = 0.2 s



Wall heat fluxes [W]
movingWall 0 0 0 0
left 0.293561 -6.79846e-15 0 0.293561
right -0.782703 1.86124e-15 0 -0.782703
bottom 0 0 0 0
frontAndBack 0 0 0 0
sum -0.489142 -4.93721e-15 0 -0.489142


Wall heat fluxes [W]
topAndBottom 0 0 0 0
left 0.795766 0 0 0.795766
right -0.82264 0 0 -0.82264
frontAndBack 0 0 0 0
sum -0.0268745 0 0 -0.0268745

Time = 58

DILUPBiCG:  Solving for Ux, Initial residual = 0.00573457, Final residual = 4.88125e-05, No Iterations 1
DILUPBiCG:  Solving for Uy, Initial residual = 0.00789233, Final residual = 1.3286e-05, No Iterations 2
DICPCG:  Solving for p_rgh, Initial residual = 0.0171181, Final residual = 0.000131861, No Iterations 9
time step continuity errors : sum local = 0.000474179, global = 1.30757e-16, cumulative = 1.48445e-15
DILUPBiCG:  Solving for epsilon, Initial residual = 0.00298264, Final residual = 1.45915e-06, No Iterations 2
DILUPBiCG:  Solving for k, Initial residual = 0.00851575, Final residual = 3.9103e-05, No Iterations 2
Before T+T solve
BiCG:  Solving for T+T, Initial residual = 0.000991159, Final residual = 9.70613e-05, No Iterations 1
Tres = -0.481887
TsRes = -0.0414881
ExecutionTime = 0.2 s



Wall heat fluxes [W]
movingWall 0 0 0 0
left 0.298283 2.63614e-15 0 0.298283
right -0.780035 1.863e-15 0 -0.780035
bottom 0 0 0 0
frontAndBack 0 0 0 0
sum -0.481752 4.49914e-15 0 -0.481752


Wall heat fluxes [W]
topAndBottom 0 0 0 0
left 0.825249 0 0 0.825249
right -0.821659 0 0 -0.821659
frontAndBack 0 0 0 0
sum 0.00359029 0 0 0.00359029

Time = 59

DILUPBiCG:  Solving for Ux, Initial residual = 0.00632459, Final residual = 5.1476e-05, No Iterations 1
DILUPBiCG:  Solving for Uy, Initial residual = 0.00737831, Final residual = 5.91348e-06, No Iterations 2
DICPCG:  Solving for p_rgh, Initial residual = 0.0168679, Final residual = 0.000143026, No Iterations 6
time step continuity errors : sum local = 0.00072186, global = 9.9659e-17, cumulative = 1.58411e-15
DILUPBiCG:  Solving for epsilon, Initial residual = 0.00280372, Final residual = 1.41538e-06, No Iterations 2
DILUPBiCG:  Solving for k, Initial residual = 0.00799232, Final residual = 5.42997e-05, No Iterations 2
Before T+T solve
BiCG:  Solving for T+T, Initial residual = 0.000984217, Final residual = 9.11516e-05, No Iterations 2
Tres = -0.474925
TsRes = -0.0406756
ExecutionTime = 0.21 s



Wall heat fluxes [W]
movingWall 0 0 0 0
left 0.303129 -1.87304e-15 0 0.303129
right -0.777721 8.37335e-15 0 -0.777721
bottom 0 0 0 0
frontAndBack 0 0 0 0
sum -0.474592 6.5003e-15 0 -0.474592


Wall heat fluxes [W]
topAndBottom 0 0 0 0
left 0.888683 0 0 0.888683
right -0.81873 0 0 -0.81873
frontAndBack 0 0 0 0
sum 0.0699536 0 0 0.0699536

Time = 60

DILUPBiCG:  Solving for Ux, Initial residual = 0.00604761, Final residual = 4.9443e-05, No Iterations 1
DILUPBiCG:  Solving for Uy, Initial residual = 0.00623119, Final residual = 2.32484e-06, No Iterations 2
DICPCG:  Solving for p_rgh, Initial residual = 0.0158108, Final residual = 7.02415e-05, No Iterations 9
time step continuity errors : sum local = 0.000247669, global = 7.21301e-17, cumulative = 1.65624e-15
DILUPBiCG:  Solving for epsilon, Initial residual = 0.00263489, Final residual = 1.40387e-06, No Iterations 2
DILUPBiCG:  Solving for k, Initial residual = 0.00751589, Final residual = 8.5273e-07, No Iterations 3
Before T+T solve
BiCG:  Solving for T+T, Initial residual = 0.000970302, Final residual = 9.5183e-05, No Iterations 1
Tres = -0.467587
TsRes = -0.0422318
ExecutionTime = 0.21 s



Wall heat fluxes [W]
movingWall 0 0 0 0
left 0.30803 -6.9372e-17 0 0.30803
right -0.775544 4.65349e-15 0 -0.775544
bottom 0 0 0 0
frontAndBack 0 0 0 0
sum -0.467514 4.58412e-15 0 -0.467514


Wall heat fluxes [W]
topAndBottom 0 0 0 0
left 0.800001 0 0 0.800001
right -0.817849 0 0 -0.817849
frontAndBack 0 0 0 0
sum -0.0178479 0 0 -0.0178479

Time = 61

DILUPBiCG:  Solving for Ux, Initial residual = 0.00579664, Final residual = 4.8519e-05, No Iterations 1
DILUPBiCG:  Solving for Uy, Initial residual = 0.00649775, Final residual = 2.87394e-06, No Iterations 2
DICPCG:  Solving for p_rgh, Initial residual = 0.0157001, Final residual = 0.000147582, No Iterations 5
time step continuity errors : sum local = 0.00070294, global = 7.10383e-17, cumulative = 1.72728e-15
DILUPBiCG:  Solving for epsilon, Initial residual = 0.00249038, Final residual = 1.36156e-06, No Iterations 2
DILUPBiCG:  Solving for k, Initial residual = 0.00706353, Final residual = 8.04939e-07, No Iterations 3
Before T+T solve
BiCG:  Solving for T+T, Initial residual = 0.000962561, Final residual = 9.44682e-05, No Iterations 2
Tres = -0.460742
TsRes = -0.0413641
ExecutionTime = 0.21 s



Wall heat fluxes [W]
movingWall 0 0 0 0
left 0.312962 -8.32464e-16 0 0.312962
right -0.773346 3.72512e-15 0 -0.773346
bottom 0 0 0 0
frontAndBack 0 0 0 0
sum -0.460385 2.89265e-15 0 -0.460385


Wall heat fluxes [W]
topAndBottom 0 0 0 0
left 0.89259 0 0 0.89259
right -0.815068 0 0 -0.815068
frontAndBack 0 0 0 0
sum 0.0775223 0 0 0.0775223

Time = 62

DILUPBiCG:  Solving for Ux, Initial residual = 0.00571545, Final residual = 4.69001e-05, No Iterations 1
DILUPBiCG:  Solving for Uy, Initial residual = 0.00569079, Final residual = 1.34211e-06, No Iterations 2
DICPCG:  Solving for p_rgh, Initial residual = 0.0142962, Final residual = 7.74818e-05, No Iterations 10
time step continuity errors : sum local = 0.000270949, global = -1.94818e-16, cumulative = 1.53246e-15
DILUPBiCG:  Solving for epsilon, Initial residual = 0.00231218, Final residual = 1.32147e-06, No Iterations 2
DILUPBiCG:  Solving for k, Initial residual = 0.00660788, Final residual = 7.48335e-07, No Iterations 3
Before T+T solve
BiCG:  Solving for T+T, Initial residual = 0.000945473, Final residual = 8.66785e-05, No Iterations 2
Tres = -0.453864
TsRes = -0.0407374
ExecutionTime = 0.22 s



Wall heat fluxes [W]
movingWall 0 0 0 0
left 0.317858 -1.38744e-15 0 0.317858
right -0.771447 -9.30507e-15 0 -0.771447
bottom 0 0 0 0
frontAndBack 0 0 0 0
sum -0.453588 -1.06925e-14 0 -0.453588


Wall heat fluxes [W]
topAndBottom 0 0 0 0
left 0.863456 0 0 0.863456
right -0.81246 0 0 -0.81246
frontAndBack 0 0 0 0
sum 0.0509962 0 0 0.0509962

Time = 63

DILUPBiCG:  Solving for Ux, Initial residual = 0.0053903, Final residual = 4.49643e-05, No Iterations 1
DILUPBiCG:  Solving for Uy, Initial residual = 0.00547776, Final residual = 1.12003e-06, No Iterations 2
DICPCG:  Solving for p_rgh, Initial residual = 0.0130524, Final residual = 0.000110649, No Iterations 5
time step continuity errors : sum local = 0.000534028, global = -1.07732e-16, cumulative = 1.42473e-15
DILUPBiCG:  Solving for epsilon, Initial residual = 0.00219648, Final residual = 1.28525e-06, No Iterations 2
DILUPBiCG:  Solving for k, Initial residual = 0.00619576, Final residual = 6.87363e-07, No Iterations 3
Before T+T solve
BiCG:  Solving for T+T, Initial residual = 0.000935586, Final residual = 8.64965e-05, No Iterations 2
Tres = -0.446985
TsRes = -0.0400905
ExecutionTime = 0.22 s



Wall heat fluxes [W]
movingWall 0 0 0 0
left 0.322778 2.77488e-15 0 0.322778
right -0.769472 -9.30737e-15 0 -0.769472
bottom 0 0 0 0
frontAndBack 0 0 0 0
sum -0.446694 -6.53249e-15 0 -0.446694


Wall heat fluxes [W]
topAndBottom 0 0 0 0
left 0.866577 0 0 0.866577
right -0.809854 0 0 -0.809854
frontAndBack 0 0 0 0
sum 0.0567232 0 0 0.0567232

Time = 64

DILUPBiCG:  Solving for Ux, Initial residual = 0.00524863, Final residual = 4.43716e-05, No Iterations 1
DILUPBiCG:  Solving for Uy, Initial residual = 0.00557404, Final residual = 1.0447e-06, No Iterations 2
DICPCG:  Solving for p_rgh, Initial residual = 0.0120876, Final residual = 8.2349e-05, No Iterations 10
time step continuity errors : sum local = 0.00029078, global = -9.76735e-17, cumulative = 1.32706e-15
DILUPBiCG:  Solving for epsilon, Initial residual = 0.00210564, Final residual = 1.25021e-06, No Iterations 2
DILUPBiCG:  Solving for k, Initial residual = 0.00588202, Final residual = 6.46862e-07, No Iterations 3
Before T+T solve
BiCG:  Solving for T+T, Initial residual = 0.000923286, Final residual = 8.48786e-05, No Iterations 2
Tres = -0.440161
TsRes = -0.0395464
ExecutionTime = 0.22 s



Wall heat fluxes [W]
movingWall 0 0 0 0
left 0.327623 1.04058e-15 0 0.327623
right -0.767504 -7.44861e-15 0 -0.767504
bottom 0 0 0 0
frontAndBack 0 0 0 0
sum -0.439882 -6.40803e-15 0 -0.439882


Wall heat fluxes [W]
topAndBottom 0 0 0 0
left 0.860486 0 0 0.860486
right -0.80733 0 0 -0.80733
frontAndBack 0 0 0 0
sum 0.0531568 0 0 0.0531568

Time = 65

DILUPBiCG:  Solving for Ux, Initial residual = 0.00512655, Final residual = 4.32851e-05, No Iterations 1
DILUPBiCG:  Solving for Uy, Initial residual = 0.00560564, Final residual = 9.95297e-07, No Iterations 2
DICPCG:  Solving for p_rgh, Initial residual = 0.0112128, Final residual = 9.9595e-05, No Iterations 5
time step continuity errors : sum local = 0.000473784, global = 6.15704e-16, cumulative = 1.94276e-15
DILUPBiCG:  Solving for epsilon, Initial residual = 0.00199186, Final residual = 1.24107e-06, No Iterations 2
DILUPBiCG:  Solving for k, Initial residual = 0.00566538, Final residual = 6.73214e-07, No Iterations 3
Before T+T solve
BiCG:  Solving for T+T, Initial residual = 0.000913175, Final residual = 8.40975e-05, No Iterations 2
Tres = -0.43336
TsRes = -0.0390717
ExecutionTime = 0.23 s



Wall heat fluxes [W]
movingWall 0 0 0 0
left 0.332419 2.49739e-15 0 0.332419
right -0.765502 2.97911e-14 0 -0.765502
bottom 0 0 0 0
frontAndBack 0 0 0 0
sum -0.433083 3.22885e-14 0 -0.433083


Wall heat fluxes [W]
topAndBottom 0 0 0 0
left 0.857833 0 0 0.857833
right -0.804851 0 0 -0.804851
frontAndBack 0 0 0 0
sum 0.052982 0 0 0.052982

Time = 66

DILUPBiCG:  Solving for Ux, Initial residual = 0.0050135, Final residual = 4.33434e-05, No Iterations 1
DILUPBiCG:  Solving for Uy, Initial residual = 0.00553766, Final residual = 9.52153e-07, No Iterations 2
DICPCG:  Solving for p_rgh, Initial residual = 0.0104995, Final residual = 7.01905e-05, No Iterations 10
time step continuity errors : sum local = 0.000249064, global = 1.17526e-16, cumulative = 2.06028e-15
DILUPBiCG:  Solving for epsilon, Initial residual = 0.00191979, Final residual = 1.26464e-06, No Iterations 2
DILUPBiCG:  Solving for k, Initial residual = 0.00547884, Final residual = 7.65107e-07, No Iterations 3
Before T+T solve
BiCG:  Solving for T+T, Initial residual = 0.000901567, Final residual = 8.34233e-05, No Iterations 2
Tres = -0.426654
TsRes = -0.0386608
ExecutionTime = 0.23 s



Wall heat fluxes [W]
movingWall 0 0 0 0
left 0.337095 -2.2199e-15 0 0.337095
right -0.763475 1.11716e-14 0 -0.763475
bottom 0 0 0 0
frontAndBack 0 0 0 0
sum -0.42638 8.95172e-15 0 -0.42638


Wall heat fluxes [W]
topAndBottom 0 0 0 0
left 0.854802 0 0 0.854802
right -0.80241 0 0 -0.80241
frontAndBack 0 0 0 0
sum 0.0523924 0 0 0.0523924

Time = 67

DILUPBiCG:  Solving for Ux, Initial residual = 0.00492624, Final residual = 4.30135e-05, No Iterations 1
DILUPBiCG:  Solving for Uy, Initial residual = 0.00546072, Final residual = 9.03921e-07, No Iterations 2
DICPCG:  Solving for p_rgh, Initial residual = 0.00984148, Final residual = 8.56094e-05, No Iterations 5
time step continuity errors : sum local = 0.000399508, global = -5.17749e-16, cumulative = 1.54254e-15
DILUPBiCG:  Solving for epsilon, Initial residual = 0.00189822, Final residual = 1.41341e-06, No Iterations 2
DILUPBiCG:  Solving for k, Initial residual = 0.0053221, Final residual = 8.79851e-07, No Iterations 3
Before T+T solve
BiCG:  Solving for T+T, Initial residual = 0.00089154, Final residual = 8.30609e-05, No Iterations 2
Tres = -0.420015
TsRes = -0.0383083
ExecutionTime = 0.23 s



Wall heat fluxes [W]
movingWall 0 0 0 0
left 0.341671 -3.4686e-16 0 0.341671
right -0.761414 -2.88642e-14 0 -0.761414
bottom 0 0 0 0
frontAndBack 0 0 0 0
sum -0.419743 -2.92111e-14 0 -0.419743


Wall heat fluxes [W]
topAndBottom 0 0 0 0
left 0.852261 0 0 0.852261
right -0.799995 0 0 -0.799995
frontAndBack 0 0 0 0
sum 0.0522658 0 0 0.0522658

Time = 68

DILUPBiCG:  Solving for Ux, Initial residual = 0.00483458, Final residual = 4.36466e-05, No Iterations 1
DILUPBiCG:  Solving for Uy, Initial residual = 0.00536006, Final residual = 8.56973e-07, No Iterations 2
DICPCG:  Solving for p_rgh, Initial residual = 0.00928958, Final residual = 5.25635e-05, No Iterations 10
time step continuity errors : sum local = 0.000187343, global = 1.87406e-16, cumulative = 1.72994e-15
[...]
DICPCG:  Solving for p_rgh, Initial residual = 5.60072e-09, Final residual = 3.01334e-11, No Iterations 12
time step continuity errors : sum local = 1.35283e-10, global = 3.77459e-16, cumulative = -6.29439e-15
DILUPBiCG:  Solving for epsilon, Initial residual = 3.06359e-09, Final residual = 7.05213e-12, No Iterations 2
DILUPBiCG:  Solving for k, Initial residual = 6.84657e-09, Final residual = 1.5265e-11, No Iterations 2
Before T+T solve
BiCG:  Solving for T+T, Initial residual = 1.53662e-09, Final residual = 1.53599e-10, No Iterations 2
Tres = -5.62867e-07
TsRes = -5.58343e-08
ExecutionTime = 2.13 s



Wall heat fluxes [W]
movingWall 0 0 0 0
left 0.599711 5.6885e-15 0 0.599711
right -0.599712 8.44817e-15 0 -0.599712
bottom 0 0 0 0
frontAndBack 0 0 0 0
sum -5.62485e-07 1.41367e-14 0 -5.62485e-07


Wall heat fluxes [W]
topAndBottom 0 0 0 0
left 0.599712 0 0 0.599712
right -0.599712 0 0 -0.599712
frontAndBack 0 0 0 0
sum 7.10002e-08 0 0 7.10002e-08

Time = 985

DILUPBiCG:  Solving for Ux, Initial residual = 4.82153e-09, Final residual = 3.47236e-11, No Iterations 1
DILUPBiCG:  Solving for Uy, Initial residual = 2.55518e-09, Final residual = 5.90019e-13, No Iterations 2
DICPCG:  Solving for p_rgh, Initial residual = 5.40735e-09, Final residual = 2.92974e-11, No Iterations 12
time step continuity errors : sum local = 1.31616e-10, global = -8.73503e-17, cumulative = -6.38174e-15
DILUPBiCG:  Solving for epsilon, Initial residual = 3.02041e-09, Final residual = 6.95288e-12, No Iterations 2
DILUPBiCG:  Solving for k, Initial residual = 6.7473e-09, Final residual = 1.49402e-11, No Iterations 2
Before T+T solve
BiCG:  Solving for T+T, Initial residual = 1.516e-09, Final residual = 9.61778e-11, No Iterations 3
Tres = -5.55341e-07
TsRes = -4.60467e-08
ExecutionTime = 2.13 s



Wall heat fluxes [W]
movingWall 0 0 0 0
left 0.599711 -8.87962e-15 0 0.599711
right -0.599712 9.3904e-15 0 -0.599712
bottom 0 0 0 0
frontAndBack 0 0 0 0
sum -5.54064e-07 5.10786e-16 0 -5.54064e-07


Wall heat fluxes [W]
topAndBottom 0 0 0 0
left 0.599712 0 0 0.599712
right -0.599712 0 0 -0.599712
frontAndBack 0 0 0 0
sum 3.78277e-07 0 0 3.78277e-07

Time = 986

DILUPBiCG:  Solving for Ux, Initial residual = 4.75421e-09, Final residual = 3.31073e-11, No Iterations 1
DILUPBiCG:  Solving for Uy, Initial residual = 2.55991e-09, Final residual = 5.26127e-13, No Iterations 2
DICPCG:  Solving for p_rgh, Initial residual = 5.01918e-09, Final residual = 2.91631e-11, No Iterations 12
time step continuity errors : sum local = 1.31542e-10, global = 3.97047e-17, cumulative = -6.34203e-15
DILUPBiCG:  Solving for epsilon, Initial residual = 2.96275e-09, Final residual = 7.93445e-12, No Iterations 2
DILUPBiCG:  Solving for k, Initial residual = 6.6323e-09, Final residual = 1.47732e-11, No Iterations 2
Before T+T solve
BiCG:  Solving for T+T, Initial residual = 1.47972e-09, Final residual = 1.35823e-10, No Iterations 1
Tres = -5.46578e-07
TsRes = -4.86858e-08
ExecutionTime = 2.13 s



Wall heat fluxes [W]
movingWall 0 0 0 0
left 0.599712 0 0 0.599712
right -0.599712 4.68805e-15 0 -0.599712
bottom 0 0 0 0
frontAndBack 0 0 0 0
sum -5.46485e-07 4.68805e-15 0 -5.46485e-07


Wall heat fluxes [W]
topAndBottom 0 0 0 0
left 0.599712 0 0 0.599712
right -0.599712 0 0 -0.599712
frontAndBack 0 0 0 0
sum -1.77813e-08 0 0 -1.77813e-08

Time = 987

DILUPBiCG:  Solving for Ux, Initial residual = 4.36534e-09, Final residual = 3.13817e-11, No Iterations 1
DILUPBiCG:  Solving for Uy, Initial residual = 2.79551e-09, Final residual = 4.85298e-13, No Iterations 2
DICPCG:  Solving for p_rgh, Initial residual = 5.97557e-09, Final residual = 3.2351e-11, No Iterations 12
time step continuity errors : sum local = 1.46644e-10, global = 7.94093e-18, cumulative = -6.33409e-15
DILUPBiCG:  Solving for epsilon, Initial residual = 2.92237e-09, Final residual = 8.55447e-12, No Iterations 2
DILUPBiCG:  Solving for k, Initial residual = 6.54728e-09, Final residual = 1.46123e-11, No Iterations 2
Before T+T solve
BiCG:  Solving for T+T, Initial residual = 1.46258e-09, Final residual = 1.38133e-10, No Iterations 2
Tres = -5.3864e-07
TsRes = -4.86874e-08
ExecutionTime = 2.14 s



Wall heat fluxes [W]
movingWall 0 0 0 0
left 0.599712 3.05237e-15 0 0.599712
right -0.599712 -2.81948e-15 0 -0.599712
bottom 0 0 0 0
frontAndBack 0 0 0 0
sum -5.3824e-07 2.32888e-16 0 -5.3824e-07


Wall heat fluxes [W]
topAndBottom 0 0 0 0
left 0.599712 0 0 0.599712
right -0.599712 0 0 -0.599712
frontAndBack 0 0 0 0
sum 8.43386e-08 0 0 8.43386e-08

Time = 988

DILUPBiCG:  Solving for Ux, Initial residual = 4.84738e-09, Final residual = 3.60146e-11, No Iterations 1
DILUPBiCG:  Solving for Uy, Initial residual = 2.78087e-09, Final residual = 6.12454e-13, No Iterations 2
DICPCG:  Solving for p_rgh, Initial residual = 5.10155e-09, Final residual = 2.75986e-11, No Iterations 12
time step continuity errors : sum local = 1.24359e-10, global = -8.31151e-17, cumulative = -6.41721e-15
DILUPBiCG:  Solving for epsilon, Initial residual = 2.83742e-09, Final residual = 4.99094e-12, No Iterations 2
DILUPBiCG:  Solving for k, Initial residual = 6.40906e-09, Final residual = 1.42817e-11, No Iterations 2
Before T+T solve
BiCG:  Solving for T+T, Initial residual = 1.43911e-09, Final residual = 1.3142e-10, No Iterations 2
Tres = -5.30691e-07
TsRes = -4.9002e-08
ExecutionTime = 2.14 s



Wall heat fluxes [W]
movingWall 0 0 0 0
left 0.599712 0 0 0.599712
right -0.599712 -6.57149e-15 0 -0.599712
bottom 0 0 0 0
frontAndBack 0 0 0 0
sum -5.30379e-07 -6.57149e-15 0 -5.30379e-07


Wall heat fluxes [W]
topAndBottom 0 0 0 0
left 0.599712 0 0 0.599712
right -0.599712 0 0 -0.599712
frontAndBack 0 0 0 0
sum 5.46562e-08 0 0 5.46562e-08

Time = 989

DILUPBiCG:  Solving for Ux, Initial residual = 4.59977e-09, Final residual = 3.50886e-11, No Iterations 1
DILUPBiCG:  Solving for Uy, Initial residual = 2.88296e-09, Final residual = 6.26794e-13, No Iterations 2
DICPCG:  Solving for p_rgh, Initial residual = 5.54874e-09, Final residual = 2.55639e-11, No Iterations 12
time step continuity errors : sum local = 1.1417e-10, global = -2.06464e-16, cumulative = -6.62367e-15
DILUPBiCG:  Solving for epsilon, Initial residual = 2.79631e-09, Final residual = 4.6346e-12, No Iterations 2
DILUPBiCG:  Solving for k, Initial residual = 6.31344e-09, Final residual = 1.43238e-11, No Iterations 2
Before T+T solve
BiCG:  Solving for T+T, Initial residual = 1.42076e-09, Final residual = 1.34611e-10, No Iterations 2
Tres = -5.22863e-07
TsRes = -4.92429e-08
ExecutionTime = 2.14 s



Wall heat fluxes [W]
movingWall 0 0 0 0
left 0.599712 4.16232e-16 0 0.599712
right -0.599712 -1.03267e-14 0 -0.599712
bottom 0 0 0 0
frontAndBack 0 0 0 0
sum -5.22526e-07 -9.91046e-15 0 -5.22526e-07


Wall heat fluxes [W]
topAndBottom 0 0 0 0
left 0.599712 0 0 0.599712
right -0.599712 0 0 -0.599712
frontAndBack 0 0 0 0
sum 6.26974e-08 0 0 6.26974e-08

Time = 990

DILUPBiCG:  Solving for Ux, Initial residual = 4.53918e-09, Final residual = 3.37524e-11, No Iterations 1
DILUPBiCG:  Solving for Uy, Initial residual = 2.65909e-09, Final residual = 5.84248e-13, No Iterations 2
DICPCG:  Solving for p_rgh, Initial residual = 5.4798e-09, Final residual = 2.65157e-11, No Iterations 12
time step continuity errors : sum local = 1.18512e-10, global = -1.91112e-16, cumulative = -6.81478e-15
DILUPBiCG:  Solving for epsilon, Initial residual = 2.77596e-09, Final residual = 5.26066e-12, No Iterations 2
DILUPBiCG:  Solving for k, Initial residual = 6.2392e-09, Final residual = 1.41541e-11, No Iterations 2
Before T+T solve
BiCG:  Solving for T+T, Initial residual = 1.40214e-09, Final residual = 1.35031e-10, No Iterations 2
Tres = -5.15165e-07
TsRes = -4.94473e-08
ExecutionTime = 2.14 s



Wall heat fluxes [W]
movingWall 0 0 0 0
left 0.599712 -3.19111e-15 0 0.599712
right -0.599712 -3.7515e-15 0 -0.599712
bottom 0 0 0 0
frontAndBack 0 0 0 0
sum -5.14832e-07 -6.94261e-15 0 -5.14832e-07


Wall heat fluxes [W]
topAndBottom 0 0 0 0
left 0.599712 0 0 0.599712
right -0.599712 0 0 -0.599712
frontAndBack 0 0 0 0
sum 6.12474e-08 0 0 6.12474e-08

Time = 991

DILUPBiCG:  Solving for Ux, Initial residual = 4.42798e-09, Final residual = 3.22441e-11, No Iterations 1
DILUPBiCG:  Solving for Uy, Initial residual = 2.46057e-09, Final residual = 5.49555e-13, No Iterations 2
DICPCG:  Solving for p_rgh, Initial residual = 5.20317e-09, Final residual = 2.71718e-11, No Iterations 12
time step continuity errors : sum local = 1.21779e-10, global = 8.68209e-17, cumulative = -6.72796e-15
DILUPBiCG:  Solving for epsilon, Initial residual = 2.75419e-09, Final residual = 5.99322e-12, No Iterations 2
DILUPBiCG:  Solving for k, Initial residual = 6.16637e-09, Final residual = 1.38358e-11, No Iterations 2
Before T+T solve
BiCG:  Solving for T+T, Initial residual = 1.38372e-09, Final residual = 1.36009e-10, No Iterations 2
Tres = -5.07588e-07
TsRes = -4.95724e-08
ExecutionTime = 2.14 s



Wall heat fluxes [W]
movingWall 0 0 0 0
left 0.599712 1.10995e-15 0 0.599712
right -0.599712 5.63081e-15 0 -0.599712
bottom 0 0 0 0
frontAndBack 0 0 0 0
sum -5.0725e-07 6.74077e-15 0 -5.0725e-07


Wall heat fluxes [W]
topAndBottom 0 0 0 0
left 0.599712 0 0 0.599712
right -0.599712 0 0 -0.599712
frontAndBack 0 0 0 0
sum 6.26072e-08 0 0 6.26072e-08

Time = 992

DILUPBiCG:  Solving for Ux, Initial residual = 4.35352e-09, Final residual = 3.14059e-11, No Iterations 1
DILUPBiCG:  Solving for Uy, Initial residual = 2.3393e-09, Final residual = 5.32635e-13, No Iterations 2
DICPCG:  Solving for p_rgh, Initial residual = 4.97501e-09, Final residual = 2.67589e-11, No Iterations 12
time step continuity errors : sum local = 1.20136e-10, global = 1.70465e-16, cumulative = -6.5575e-15
DILUPBiCG:  Solving for epsilon, Initial residual = 2.72221e-09, Final residual = 6.27524e-12, No Iterations 2
DILUPBiCG:  Solving for k, Initial residual = 6.08455e-09, Final residual = 1.35694e-11, No Iterations 2
Before T+T solve
BiCG:  Solving for T+T, Initial residual = 1.36533e-09, Final residual = 1.36523e-10, No Iterations 2
Tres = -5.0011e-07
TsRes = -4.96229e-08
ExecutionTime = 2.15 s



Wall heat fluxes [W]
movingWall 0 0 0 0
left 0.599712 -1.10995e-15 0 0.599712
right -0.599712 1.1261e-14 0 -0.599712
bottom 0 0 0 0
frontAndBack 0 0 0 0
sum -4.99771e-07 1.0151e-14 0 -4.99771e-07


Wall heat fluxes [W]
topAndBottom 0 0 0 0
left 0.599712 0 0 0.599712
right -0.599712 0 0 -0.599712
frontAndBack 0 0 0 0
sum 6.31176e-08 0 0 6.31176e-08

Time = 993

DILUPBiCG:  Solving for Ux, Initial residual = 4.28335e-09, Final residual = 3.08489e-11, No Iterations 1
DILUPBiCG:  Solving for Uy, Initial residual = 2.26947e-09, Final residual = 5.24114e-13, No Iterations 2
DICPCG:  Solving for p_rgh, Initial residual = 4.80327e-09, Final residual = 2.60234e-11, No Iterations 12
time step continuity errors : sum local = 1.1691e-10, global = 5.23043e-16, cumulative = -6.03445e-15
DILUPBiCG:  Solving for epsilon, Initial residual = 2.68374e-09, Final residual = 6.18732e-12, No Iterations 2
DILUPBiCG:  Solving for k, Initial residual = 5.99604e-09, Final residual = 1.32803e-11, No Iterations 2
Before T+T solve
BiCG:  Solving for T+T, Initial residual = 1.34701e-09, Final residual = 8.54649e-11, No Iterations 3
Tres = -4.93424e-07
TsRes = -4.09229e-08
ExecutionTime = 2.15 s



Wall heat fluxes [W]
movingWall 0 0 0 0
left 0.599712 9.98957e-15 0 0.599712
right -0.599712 1.22033e-14 0 -0.599712
bottom 0 0 0 0
frontAndBack 0 0 0 0
sum -4.92289e-07 2.21928e-14 0 -4.92289e-07


Wall heat fluxes [W]
topAndBottom 0 0 0 0
left 0.599712 0 0 0.599712
right -0.599712 0 0 -0.599712
frontAndBack 0 0 0 0
sum 3.36184e-07 0 0 3.36184e-07

Time = 994

DILUPBiCG:  Solving for Ux, Initial residual = 4.22374e-09, Final residual = 2.94114e-11, No Iterations 1
DILUPBiCG:  Solving for Uy, Initial residual = 2.27423e-09, Final residual = 4.67208e-13, No Iterations 2
DICPCG:  Solving for p_rgh, Initial residual = 4.46002e-09, Final residual = 2.59136e-11, No Iterations 12
time step continuity errors : sum local = 1.16889e-10, global = -1.74171e-16, cumulative = -6.20863e-15
DILUPBiCG:  Solving for epsilon, Initial residual = 2.63244e-09, Final residual = 7.06312e-12, No Iterations 2
DILUPBiCG:  Solving for k, Initial residual = 5.89359e-09, Final residual = 1.31311e-11, No Iterations 2
Before T+T solve
BiCG:  Solving for T+T, Initial residual = 1.31476e-09, Final residual = 1.20697e-10, No Iterations 1
Tres = -4.85639e-07
TsRes = -4.3268e-08
ExecutionTime = 2.15 s



Wall heat fluxes [W]
movingWall 0 0 0 0
left 0.599712 -5.82725e-15 0 0.599712
right -0.599712 -2.0377e-18 0 -0.599712
bottom 0 0 0 0
frontAndBack 0 0 0 0
sum -4.85556e-07 -5.82929e-15 0 -4.85556e-07


Wall heat fluxes [W]
topAndBottom 0 0 0 0
left 0.599712 0 0 0.599712
right -0.599712 0 0 -0.599712
frontAndBack 0 0 0 0
sum -1.58004e-08 0 0 -1.58004e-08

Time = 995

DILUPBiCG:  Solving for Ux, Initial residual = 3.87817e-09, Final residual = 2.7878e-11, No Iterations 1
DILUPBiCG:  Solving for Uy, Initial residual = 2.48349e-09, Final residual = 4.30913e-13, No Iterations 2
DICPCG:  Solving for p_rgh, Initial residual = 5.31023e-09, Final residual = 2.87383e-11, No Iterations 12
time step continuity errors : sum local = 1.30268e-10, global = 1.51937e-16, cumulative = -6.05669e-15
DILUPBiCG:  Solving for epsilon, Initial residual = 2.59649e-09, Final residual = 7.61509e-12, No Iterations 2
DILUPBiCG:  Solving for k, Initial residual = 5.8178e-09, Final residual = 1.29873e-11, No Iterations 2
Before T+T solve
BiCG:  Solving for T+T, Initial residual = 1.29953e-09, Final residual = 1.22767e-10, No Iterations 2
Tres = -4.78586e-07
TsRes = -4.32684e-08
ExecutionTime = 2.15 s



Wall heat fluxes [W]
movingWall 0 0 0 0
left 0.599712 5.54976e-16 0 0.599712
right -0.599712 8.44587e-15 0 -0.599712
bottom 0 0 0 0
frontAndBack 0 0 0 0
sum -4.78231e-07 9.00084e-15 0 -4.78231e-07


Wall heat fluxes [W]
topAndBottom 0 0 0 0
left 0.599712 0 0 0.599712
right -0.599712 0 0 -0.599712
frontAndBack 0 0 0 0
sum 7.4971e-08 0 0 7.4971e-08

Time = 996

DILUPBiCG:  Solving for Ux, Initial residual = 4.30655e-09, Final residual = 3.19976e-11, No Iterations 1
DILUPBiCG:  Solving for Uy, Initial residual = 2.4703e-09, Final residual = 5.44079e-13, No Iterations 2
DICPCG:  Solving for p_rgh, Initial residual = 4.53185e-09, Final residual = 2.45218e-11, No Iterations 12
time step continuity errors : sum local = 1.10496e-10, global = -2.18111e-16, cumulative = -6.2748e-15
DILUPBiCG:  Solving for epsilon, Initial residual = 2.52096e-09, Final residual = 4.43804e-12, No Iterations 2
DILUPBiCG:  Solving for k, Initial residual = 5.69477e-09, Final residual = 1.269e-11, No Iterations 2
Before T+T solve
BiCG:  Solving for T+T, Initial residual = 1.27869e-09, Final residual = 1.16797e-10, No Iterations 2
Tres = -4.71524e-07
TsRes = -4.35473e-08
ExecutionTime = 2.15 s



Wall heat fluxes [W]
movingWall 0 0 0 0
left 0.599712 -2.08116e-15 0 0.599712
right -0.599712 -9.39301e-15 0 -0.599712
bottom 0 0 0 0
frontAndBack 0 0 0 0
sum -4.71247e-07 -1.14742e-14 0 -4.71247e-07


Wall heat fluxes [W]
topAndBottom 0 0 0 0
left 0.599712 0 0 0.599712
right -0.599712 0 0 -0.599712
frontAndBack 0 0 0 0
sum 4.85827e-08 0 0 4.85827e-08

Time = 997

DILUPBiCG:  Solving for Ux, Initial residual = 4.08658e-09, Final residual = 3.11754e-11, No Iterations 1
DILUPBiCG:  Solving for Uy, Initial residual = 2.5611e-09, Final residual = 5.56811e-13, No Iterations 2
DICPCG:  Solving for p_rgh, Initial residual = 4.92939e-09, Final residual = 2.27082e-11, No Iterations 12
time step continuity errors : sum local = 1.01418e-10, global = -4.34634e-16, cumulative = -6.70943e-15
DILUPBiCG:  Solving for epsilon, Initial residual = 2.48441e-09, Final residual = 4.12011e-12, No Iterations 2
DILUPBiCG:  Solving for k, Initial residual = 5.60963e-09, Final residual = 1.27266e-11, No Iterations 2
Before T+T solve
BiCG:  Solving for T+T, Initial residual = 1.26238e-09, Final residual = 1.19631e-10, No Iterations 2
Tres = -4.64569e-07
TsRes = -4.37608e-08
ExecutionTime = 2.16 s



Wall heat fluxes [W]
movingWall 0 0 0 0
left 0.599712 -2.35865e-15 0 0.599712
right -0.599712 -2.06467e-14 0 -0.599712
bottom 0 0 0 0
frontAndBack 0 0 0 0
sum -4.6427e-07 -2.30054e-14 0 -4.6427e-07


Wall heat fluxes [W]
topAndBottom 0 0 0 0
left 0.599712 0 0 0.599712
right -0.599712 0 0 -0.599712
frontAndBack 0 0 0 0
sum 5.57307e-08 0 0 5.57307e-08

Time = 998

DILUPBiCG:  Solving for Ux, Initial residual = 4.0329e-09, Final residual = 2.99881e-11, No Iterations 1
DILUPBiCG:  Solving for Uy, Initial residual = 2.36218e-09, Final residual = 5.18939e-13, No Iterations 2
DICPCG:  Solving for p_rgh, Initial residual = 4.86825e-09, Final residual = 2.35586e-11, No Iterations 12
time step continuity errors : sum local = 1.05295e-10, global = -4.44692e-17, cumulative = -6.7539e-15
DILUPBiCG:  Solving for epsilon, Initial residual = 2.46631e-09, Final residual = 4.67644e-12, No Iterations 2
DILUPBiCG:  Solving for k, Initial residual = 5.54353e-09, Final residual = 1.25752e-11, No Iterations 2
Before T+T solve
BiCG:  Solving for T+T, Initial residual = 1.24583e-09, Final residual = 1.20004e-10, No Iterations 2
Tres = -4.5773e-07
TsRes = -4.39419e-08
ExecutionTime = 2.16 s



Wall heat fluxes [W]
movingWall 0 0 0 0
left 0.599712 4.99478e-15 0 0.599712
right -0.599712 -1.03218e-14 0 -0.599712
bottom 0 0 0 0
frontAndBack 0 0 0 0
sum -4.57434e-07 -5.32703e-15 0 -4.57434e-07


Wall heat fluxes [W]
topAndBottom 0 0 0 0
left 0.599712 0 0 0.599712
right -0.599712 0 0 -0.599712
frontAndBack 0 0 0 0
sum 5.44395e-08 0 0 5.44395e-08

Time = 999

DILUPBiCG:  Solving for Ux, Initial residual = 3.93414e-09, Final residual = 2.86482e-11, No Iterations 1
DILUPBiCG:  Solving for Uy, Initial residual = 2.18583e-09, Final residual = 4.88112e-13, No Iterations 2
DICPCG:  Solving for p_rgh, Initial residual = 4.62247e-09, Final residual = 2.41439e-11, No Iterations 12
time step continuity errors : sum local = 1.08209e-10, global = 1.32349e-17, cumulative = -6.74067e-15
DILUPBiCG:  Solving for epsilon, Initial residual = 2.44696e-09, Final residual = 5.32711e-12, No Iterations 2
DILUPBiCG:  Solving for k, Initial residual = 5.47871e-09, Final residual = 1.22917e-11, No Iterations 2
Before T+T solve
BiCG:  Solving for T+T, Initial residual = 1.22946e-09, Final residual = 1.20872e-10, No Iterations 2
Tres = -4.50998e-07
TsRes = -4.40525e-08
ExecutionTime = 2.16 s



Wall heat fluxes [W]
movingWall 0 0 0 0
left 0.599712 4.43981e-15 0 0.599712
right -0.599712 -5.63057e-15 0 -0.599712
bottom 0 0 0 0
frontAndBack 0 0 0 0
sum -4.50698e-07 -1.19076e-15 0 -4.50698e-07


Wall heat fluxes [W]
topAndBottom 0 0 0 0
left 0.599712 0 0 0.599712
right -0.599712 0 0 -0.599712
frontAndBack 0 0 0 0
sum 5.56473e-08 0 0 5.56473e-08

Time = 1000

DILUPBiCG:  Solving for Ux, Initial residual = 3.86803e-09, Final residual = 2.79038e-11, No Iterations 1
DILUPBiCG:  Solving for Uy, Initial residual = 2.07818e-09, Final residual = 4.73091e-13, No Iterations 2
DICPCG:  Solving for p_rgh, Initial residual = 4.41988e-09, Final residual = 2.37773e-11, No Iterations 12
time step continuity errors : sum local = 1.06751e-10, global = 2.32405e-16, cumulative = -6.50826e-15
DILUPBiCG:  Solving for epsilon, Initial residual = 2.41854e-09, Final residual = 5.57667e-12, No Iterations 2
DILUPBiCG:  Solving for k, Initial residual = 5.40593e-09, Final residual = 1.20551e-11, No Iterations 2
Before T+T solve
BiCG:  Solving for T+T, Initial residual = 1.21313e-09, Final residual = 7.64024e-11, No Iterations 3
Tres = -4.44976e-07
TsRes = -3.6386e-08
ExecutionTime = 2.17 s



Wall heat fluxes [W]
movingWall 0 0 0 0
left 0.599712 9.1571e-15 0 0.599712
right -0.599712 -2.82037e-15 0 -0.599712
bottom 0 0 0 0
frontAndBack 0 0 0 0
sum -4.43967e-07 6.33673e-15 0 -4.43967e-07


Wall heat fluxes [W]
topAndBottom 0 0 0 0
left 0.599712 0 0 0.599712
right -0.599712 0 0 -0.599712
frontAndBack 0 0 0 0
sum 2.98939e-07 0 0 2.98939e-07

End

