/*---------------------------------------------------------------------------*\
| =========                 |                                                 |
| \\      /  F ield         | OpenFOAM Extend Project: Open source CFD        |
|  \\    /   O peration     | Version:  1.6-ext                               |
|   \\  /    A nd           | Web:      www.extend-project.de                 |
|    \\/     M anipulation  |                                                 |
\*---------------------------------------------------------------------------*/
Build  : 1.6-ext-8673d8aecf4d
Exec   : chipAirCoolingSimpleFoam
Date   : Nov 01 2011
Time   : 21:09:50
Host   : diokletian
PID    : 17683
Case   : /home/henrus/projects/ChipAirCooling/run/tutorial1_twisted/conjugateContactCavity
nProcs : 1
SigFpe : Enabling floating point exception trapping (FOAM_SIGFPE).

// * * * * * * * * * * * * * * * * * * * * * * * * * * * * * * * * * * * * * //
Create time

Create mesh for time = 0


Reading g
Reading transportProperties

Calculating field g.h

Reading field p_rgh

Reading field U

Reading field T

Reading/calculating face flux field phi

Selecting incompressible transport model Newtonian
Selecting RAS turbulence model kEpsilon
kEpsilonCoeffs
{
    Cmu             0.09;
    C1              1.44;
    C2              1.92;
    alphaEps        0.76923;
    sigmaEps        1.3;
}

Reading field kappaEff

Creating radiation model

Selecting radiationModel none
Reading field Tsolid

Reading solid thermal properties
Selecting thermal model multiMaterialZones
Selecting thermal model constant
Selecting thermal model constant
Selecting thermal gap model constant
Reading solid diffusivity k


Starting time loop

--> FOAM Warning : 
    From function dlLibraryTable::open(const dictionary& dict, const word& libsEntry, const TablePtr tablePtr)
    in file lnInclude/dlLibraryTableTemplates.C at line 68
    library "libairbusMaterialModels.so" did not introduce any new entries

Time = 1

DILUPBiCG:  Solving for Ux, Initial residual = 1, Final residual = 0.000145886, No Iterations 2
DILUPBiCG:  Solving for Uy, Initial residual = 1, Final residual = 0.000167378, No Iterations 2
DICPCG:  Solving for p_rgh, Initial residual = 1, Final residual = 0.00608078, No Iterations 6
time step continuity errors : sum local = 0.00372782, global = -7.08795e-16, cumulative = -7.08795e-16
DILUPBiCG:  Solving for epsilon, Initial residual = 0.0780755, Final residual = 0.000143246, No Iterations 2
DILUPBiCG:  Solving for k, Initial residual = 1, Final residual = 0.00250614, No Iterations 2
BiCG:  Solving for T+T, Initial residual = 0.306789, Final residual = 0.027967, No Iterations 3
ExecutionTime = 0.02 s



Wall heat fluxes [W]
movingWall 0 -2.44323e-14 0 -2.44323e-14
left 2.45889e-08 0 0 2.45889e-08
right -0.54575 0 0 -0.54575
bottom 0 0 0 0
frontAndBack 0 0 0 0
sum -0.54575 -2.44323e-14 0 -0.54575


Wall heat fluxes [W]
topAndBottom 0 0 0 0
left -1.17182 0 0 -1.17182
right -18.4195 0 0 -18.4195
frontAndBack 0 0 0 0
sum -19.5914 0 0 -19.5914

Time = 2

DILUPBiCG:  Solving for Ux, Initial residual = 0.873965, Final residual = 9.09744e-05, No Iterations 2
DILUPBiCG:  Solving for Uy, Initial residual = 0.826609, Final residual = 0.00791697, No Iterations 1
DICPCG:  Solving for p_rgh, Initial residual = 0.754131, Final residual = 0.00379912, No Iterations 12
time step continuity errors : sum local = 0.0137101, global = -5.99011e-16, cumulative = -1.30781e-15
DILUPBiCG:  Solving for epsilon, Initial residual = 0.0222354, Final residual = 3.41307e-05, No Iterations 2
DILUPBiCG:  Solving for k, Initial residual = 0.635892, Final residual = 0.00106796, No Iterations 2
BiCG:  Solving for T+T, Initial residual = 0.0305906, Final residual = 0.00161691, No Iterations 5
ExecutionTime = 0.02 s



Wall heat fluxes [W]
movingWall 0 -2.43031e-14 0 -2.43031e-14
left 4.2537e-07 -3.30791e-23 0 4.2537e-07
right -0.51927 4.53652e-15 0 -0.51927
bottom 0 0 0 0
frontAndBack 0 0 0 0
sum -0.519269 -1.97666e-14 0 -0.519269


Wall heat fluxes [W]
topAndBottom 0 0 0 0
left 41.163 0 0 41.163
right -7.09259 0 0 -7.09259
frontAndBack 0 0 0 0
sum 34.0704 0 0 34.0704

Time = 3

DILUPBiCG:  Solving for Ux, Initial residual = 0.247801, Final residual = 3.52894e-05, No Iterations 2
DILUPBiCG:  Solving for Uy, Initial residual = 0.231504, Final residual = 0.00205549, No Iterations 1
DICPCG:  Solving for p_rgh, Initial residual = 0.457636, Final residual = 0.00332689, No Iterations 6
time step continuity errors : sum local = 0.00764044, global = -6.83185e-16, cumulative = -1.99099e-15
DILUPBiCG:  Solving for epsilon, Initial residual = 0.0531782, Final residual = 3.74504e-05, No Iterations 2
DILUPBiCG:  Solving for k, Initial residual = 0.218365, Final residual = 0.000375811, No Iterations 2
BiCG:  Solving for T+T, Initial residual = 0.00823146, Final residual = 0.000654119, No Iterations 5
ExecutionTime = 0.02 s



Wall heat fluxes [W]
movingWall 0 -2.43312e-14 0 -2.43312e-14
left 7.86221e-06 1.38271e-20 0 7.86221e-06
right -0.620557 -3.51962e-18 0 -0.620557
bottom 0 0 0 0
frontAndBack 0 0 0 0
sum -0.620549 -2.43347e-14 0 -0.620549


Wall heat fluxes [W]
topAndBottom 0 0 0 0
left 28.9398 0 0 28.9398
right -4.61231 0 0 -4.61231
frontAndBack 0 0 0 0
sum 24.3275 0 0 24.3275

Time = 4

DILUPBiCG:  Solving for Ux, Initial residual = 0.176818, Final residual = 0.0017517, No Iterations 1
DILUPBiCG:  Solving for Uy, Initial residual = 0.198776, Final residual = 1.44249e-05, No Iterations 2
DICPCG:  Solving for p_rgh, Initial residual = 0.21901, Final residual = 0.00147457, No Iterations 9
time step continuity errors : sum local = 0.00311751, global = -7.77682e-16, cumulative = -2.76867e-15
DILUPBiCG:  Solving for epsilon, Initial residual = 0.0628584, Final residual = 6.92431e-05, No Iterations 2
DILUPBiCG:  Solving for k, Initial residual = 0.128394, Final residual = 0.000236269, No Iterations 2
BiCG:  Solving for T+T, Initial residual = 0.00518145, Final residual = 0.00017671, No Iterations 5
ExecutionTime = 0.02 s



Wall heat fluxes [W]
movingWall 0 -2.43493e-14 0 -2.43493e-14
left 3.04944e-05 -1.33706e-19 0 3.04944e-05
right -0.689679 -2.88731e-15 0 -0.689679
bottom 0 0 0 0
frontAndBack 0 0 0 0
sum -0.689648 -2.72367e-14 0 -0.689648


Wall heat fluxes [W]
topAndBottom 0 0 0 0
left 24.4583 0 0 24.4583
right -3.53189 0 0 -3.53189
frontAndBack 0 0 0 0
sum 20.9264 0 0 20.9264

Time = 5

DILUPBiCG:  Solving for Ux, Initial residual = 0.0938002, Final residual = 0.000892676, No Iterations 1
DILUPBiCG:  Solving for Uy, Initial residual = 0.101077, Final residual = 0.000972086, No Iterations 1
DICPCG:  Solving for p_rgh, Initial residual = 0.230346, Final residual = 0.00181474, No Iterations 6
time step continuity errors : sum local = 0.00227793, global = -6.76303e-16, cumulative = -3.44498e-15
DILUPBiCG:  Solving for epsilon, Initial residual = 0.0513797, Final residual = 8.9353e-05, No Iterations 2
DILUPBiCG:  Solving for k, Initial residual = 0.0921059, Final residual = 0.000156907, No Iterations 2
BiCG:  Solving for T+T, Initial residual = 0.00389434, Final residual = 0.000378943, No Iterations 3
ExecutionTime = 0.03 s



Wall heat fluxes [W]
movingWall 0 -2.43609e-14 0 -2.43609e-14
left 0.000110591 -1.14745e-18 0 0.000110591
right -0.749362 2.54547e-15 0 -0.749362
bottom 0 0 0 0
frontAndBack 0 0 0 0
sum -0.749251 -2.18166e-14 0 -0.749251


Wall heat fluxes [W]
topAndBottom 0 0 0 0
left 18.3018 0 0 18.3018
right -2.862 0 0 -2.862
frontAndBack 0 0 0 0
sum 15.4398 0 0 15.4398

Time = 6

DILUPBiCG:  Solving for Ux, Initial residual = 0.069533, Final residual = 0.000586363, No Iterations 1
DILUPBiCG:  Solving for Uy, Initial residual = 0.0728458, Final residual = 0.000592567, No Iterations 1
DICPCG:  Solving for p_rgh, Initial residual = 0.231485, Final residual = 0.00103155, No Iterations 10
time step continuity errors : sum local = 0.00099811, global = -7.1786e-16, cumulative = -4.16284e-15
DILUPBiCG:  Solving for epsilon, Initial residual = 0.0371716, Final residual = 7.78276e-05, No Iterations 2
DILUPBiCG:  Solving for k, Initial residual = 0.0756272, Final residual = 0.000164177, No Iterations 2
BiCG:  Solving for T+T, Initial residual = 0.00319237, Final residual = 0.00022684, No Iterations 3
ExecutionTime = 0.03 s



Wall heat fluxes [W]
movingWall 0 -2.43672e-14 0 -2.43672e-14
left 0.000306388 2.54048e-20 0 0.000306388
right -0.793932 -4.31869e-16 0 -0.793932
bottom 0 0 0 0
frontAndBack 0 0 0 0
sum -0.793625 -2.4799e-14 0 -0.793625


Wall heat fluxes [W]
topAndBottom 0 0 0 0
left 14.7232 0 0 14.7232
right -2.45258 0 0 -2.45258
frontAndBack 0 0 0 0
sum 12.2706 0 0 12.2706

Time = 7

DILUPBiCG:  Solving for Ux, Initial residual = 0.056474, Final residual = 0.00048782, No Iterations 1
DILUPBiCG:  Solving for Uy, Initial residual = 0.0662001, Final residual = 0.000558677, No Iterations 1
DICPCG:  Solving for p_rgh, Initial residual = 0.209704, Final residual = 0.00193832, No Iterations 10
time step continuity errors : sum local = 0.00174123, global = -6.19062e-16, cumulative = -4.7819e-15
DILUPBiCG:  Solving for epsilon, Initial residual = 0.0337426, Final residual = 6.42343e-05, No Iterations 2
DILUPBiCG:  Solving for k, Initial residual = 0.0673979, Final residual = 0.000174683, No Iterations 2
BiCG:  Solving for T+T, Initial residual = 0.00278291, Final residual = 0.00022604, No Iterations 3
ExecutionTime = 0.03 s



Wall heat fluxes [W]
movingWall 0 -2.43691e-14 0 -2.43691e-14
left 0.000686042 -6.09715e-18 0 0.000686042
right -0.830424 7.47768e-15 0 -0.830424
bottom 0 0 0 0
frontAndBack 0 0 0 0
sum -0.829738 -1.68975e-14 0 -0.829738


Wall heat fluxes [W]
topAndBottom 0 0 0 0
left 11.0056 0 0 11.0056
right -2.08037 0 0 -2.08037
frontAndBack 0 0 0 0
sum 8.92523 0 0 8.92523

Time = 8

DILUPBiCG:  Solving for Ux, Initial residual = 0.0515843, Final residual = 0.000463919, No Iterations 1
DILUPBiCG:  Solving for Uy, Initial residual = 0.0615503, Final residual = 0.000524203, No Iterations 1
DICPCG:  Solving for p_rgh, Initial residual = 0.180867, Final residual = 0.000968339, No Iterations 10
time step continuity errors : sum local = 0.000882698, global = -6.47616e-16, cumulative = -5.42951e-15
DILUPBiCG:  Solving for epsilon, Initial residual = 0.0316009, Final residual = 6.06786e-05, No Iterations 2
DILUPBiCG:  Solving for k, Initial residual = 0.0622347, Final residual = 0.000164927, No Iterations 2
BiCG:  Solving for T+T, Initial residual = 0.00242173, Final residual = 0.000187836, No Iterations 3
ExecutionTime = 0.03 s



Wall heat fluxes [W]
movingWall 0 -2.43679e-14 0 -2.43679e-14
left 0.00135328 -5.21645e-18 0 0.00135328
right -0.857811 4.89504e-15 0 -0.857811
bottom 0 0 0 0
frontAndBack 0 0 0 0
sum -0.856457 -1.94781e-14 0 -0.856457


Wall heat fluxes [W]
topAndBottom 0 0 0 0
left 9.02218 0 0 9.02218
right -1.83697 0 0 -1.83697
frontAndBack 0 0 0 0
sum 7.18521 0 0 7.18521

Time = 9

DILUPBiCG:  Solving for Ux, Initial residual = 0.0464172, Final residual = 0.000440677, No Iterations 1
DILUPBiCG:  Solving for Uy, Initial residual = 0.0561793, Final residual = 0.000463386, No Iterations 1
DICPCG:  Solving for p_rgh, Initial residual = 0.160918, Final residual = 0.00160209, No Iterations 8
time step continuity errors : sum local = 0.00191772, global = -6.31635e-16, cumulative = -6.06115e-15
DILUPBiCG:  Solving for epsilon, Initial residual = 0.029759, Final residual = 5.9203e-05, No Iterations 2
DILUPBiCG:  Solving for k, Initial residual = 0.0603067, Final residual = 0.000163722, No Iterations 2
BiCG:  Solving for T+T, Initial residual = 0.00218875, Final residual = 0.000173548, No Iterations 3
ExecutionTime = 0.03 s



Wall heat fluxes [W]
movingWall 0 -2.43642e-14 0 -2.43642e-14
left 0.00241522 1.44977e-17 0 0.00241522
right -0.880813 5.38787e-15 0 -0.880813
bottom 0 0 0 0
frontAndBack 0 0 0 0
sum -0.878398 -1.89619e-14 0 -0.878398


Wall heat fluxes [W]
topAndBottom 0 0 0 0
left 6.82735 0 0 6.82735
right -1.62334 0 0 -1.62334
frontAndBack 0 0 0 0
sum 5.20401 0 0 5.20401

Time = 10

DILUPBiCG:  Solving for Ux, Initial residual = 0.0404605, Final residual = 8.40666e-06, No Iterations 2
DILUPBiCG:  Solving for Uy, Initial residual = 0.0513395, Final residual = 0.000410623, No Iterations 1
DICPCG:  Solving for p_rgh, Initial residual = 0.143071, Final residual = 0.0010919, No Iterations 11
time step continuity errors : sum local = 0.00109367, global = -7.18324e-16, cumulative = -6.77947e-15
DILUPBiCG:  Solving for epsilon, Initial residual = 0.0285252, Final residual = 6.12295e-05, No Iterations 2
DILUPBiCG:  Solving for k, Initial residual = 0.0599098, Final residual = 0.000164982, No Iterations 2
BiCG:  Solving for T+T, Initial residual = 0.00202571, Final residual = 0.000164107, No Iterations 3
ExecutionTime = 0.04 s



Wall heat fluxes [W]
movingWall 0 -2.43587e-14 0 -2.43587e-14
left 0.00398417 -1.51751e-17 0 0.00398417
right -0.89844 -2.71362e-15 0 -0.89844
bottom 0 0 0 0
frontAndBack 0 0 0 0
sum -0.894456 -2.70875e-14 0 -0.894456


Wall heat fluxes [W]
topAndBottom 0 0 0 0
left 5.71607 0 0 5.71607
right -1.47891 0 0 -1.47891
frontAndBack 0 0 0 0
sum 4.23716 0 0 4.23716

Time = 11

DILUPBiCG:  Solving for Ux, Initial residual = 0.0363015, Final residual = 4.44713e-06, No Iterations 2
DILUPBiCG:  Solving for Uy, Initial residual = 0.0482314, Final residual = 0.000453471, No Iterations 1
DICPCG:  Solving for p_rgh, Initial residual = 0.1219, Final residual = 0.00115179, No Iterations 6
time step continuity errors : sum local = 0.00144248, global = -6.50908e-16, cumulative = -7.43038e-15
DILUPBiCG:  Solving for epsilon, Initial residual = 0.0265789, Final residual = 6.34639e-05, No Iterations 2
DILUPBiCG:  Solving for k, Initial residual = 0.0588266, Final residual = 0.0001664, No Iterations 2
BiCG:  Solving for T+T, Initial residual = 0.00193725, Final residual = 0.000150124, No Iterations 3
ExecutionTime = 0.04 s



Wall heat fluxes [W]
movingWall 0 -2.43519e-14 0 -2.43519e-14
left 0.00619558 8.12953e-18 0 0.00619558
right -0.913628 4.54222e-15 0 -0.913628
bottom 0 0 0 0
frontAndBack 0 0 0 0
sum -0.907432 -1.98015e-14 0 -0.907432


Wall heat fluxes [W]
topAndBottom 0 0 0 0
left 4.3862 0 0 4.3862
right -1.35446 0 0 -1.35446
frontAndBack 0 0 0 0
sum 3.03174 0 0 3.03174

Time = 12

DILUPBiCG:  Solving for Ux, Initial residual = 0.0325809, Final residual = 4.64414e-06, No Iterations 2
DILUPBiCG:  Solving for Uy, Initial residual = 0.0460544, Final residual = 2.00614e-05, No Iterations 2
DICPCG:  Solving for p_rgh, Initial residual = 0.106453, Final residual = 0.00096226, No Iterations 8
time step continuity errors : sum local = 0.00136724, global = -6.05629e-16, cumulative = -8.03601e-15
DILUPBiCG:  Solving for epsilon, Initial residual = 0.0245746, Final residual = 6.52477e-05, No Iterations 2
DILUPBiCG:  Solving for k, Initial residual = 0.0569835, Final residual = 0.000172588, No Iterations 2
BiCG:  Solving for T+T, Initial residual = 0.00189004, Final residual = 0.000148165, No Iterations 3
ExecutionTime = 0.04 s



Wall heat fluxes [W]
movingWall 0 -2.43443e-14 0 -2.43443e-14
left 0.00914544 -3.4686e-17 0 0.00914544
right -0.925427 8.6648e-15 0 -0.925427
bottom 0 0 0 0
frontAndBack 0 0 0 0
sum -0.916281 -1.57142e-14 0 -0.916281


Wall heat fluxes [W]
topAndBottom 0 0 0 0
left 3.75749 0 0 3.75749
right -1.26982 0 0 -1.26982
frontAndBack 0 0 0 0
sum 2.48767 0 0 2.48767

Time = 13

DILUPBiCG:  Solving for Ux, Initial residual = 0.0304419, Final residual = 4.48847e-06, No Iterations 2
DILUPBiCG:  Solving for Uy, Initial residual = 0.0448529, Final residual = 1.65488e-05, No Iterations 2
DICPCG:  Solving for p_rgh, Initial residual = 0.0936566, Final residual = 0.000701993, No Iterations 7
time step continuity errors : sum local = 0.000873211, global = -7.58194e-16, cumulative = -8.7942e-15
DILUPBiCG:  Solving for epsilon, Initial residual = 0.022212, Final residual = 6.76531e-05, No Iterations 2
DILUPBiCG:  Solving for k, Initial residual = 0.0544324, Final residual = 0.000169996, No Iterations 2
BiCG:  Solving for T+T, Initial residual = 0.00186038, Final residual = 0.000134331, No Iterations 3
ExecutionTime = 0.04 s



Wall heat fluxes [W]
movingWall 0 -2.43365e-14 0 -2.43365e-14
left 0.0128826 -1.24653e-16 0 0.0128826
right -0.935701 -1.37245e-15 0 -0.935701
bottom 0 0 0 0
frontAndBack 0 0 0 0
sum -0.922818 -2.58336e-14 0 -0.922818


Wall heat fluxes [W]
topAndBottom 0 0 0 0
left 2.94038 0 0 2.94038
right -1.19738 0 0 -1.19738
frontAndBack 0 0 0 0
sum 1.743 0 0 1.743

Time = 14

DILUPBiCG:  Solving for Ux, Initial residual = 0.0276702, Final residual = 2.81201e-05, No Iterations 2
DILUPBiCG:  Solving for Uy, Initial residual = 0.0434943, Final residual = 6.6479e-06, No Iterations 2
DICPCG:  Solving for p_rgh, Initial residual = 0.0857199, Final residual = 0.000675308, No Iterations 7
time step continuity errors : sum local = 0.0010162, global = -8.32475e-16, cumulative = -9.62668e-15
DILUPBiCG:  Solving for epsilon, Initial residual = 0.0202467, Final residual = 6.77473e-05, No Iterations 2
DILUPBiCG:  Solving for k, Initial residual = 0.0521863, Final residual = 0.000169534, No Iterations 2
BiCG:  Solving for T+T, Initial residual = 0.00185211, Final residual = 0.000130164, No Iterations 3
ExecutionTime = 0.04 s



Wall heat fluxes [W]
movingWall 0 -2.43289e-14 0 -2.43289e-14
left 0.0174352 -1.30072e-16 0 0.0174352
right -0.943716 -5.04281e-15 0 -0.943716
bottom 0 0 0 0
frontAndBack 0 0 0 0
sum -0.926281 -2.95018e-14 0 -0.926281


Wall heat fluxes [W]
topAndBottom 0 0 0 0
left 2.58082 0 0 2.58082
right -1.14883 0 0 -1.14883
frontAndBack 0 0 0 0
sum 1.43199 0 0 1.43199

Time = 15

DILUPBiCG:  Solving for Ux, Initial residual = 0.0254271, Final residual = 6.46704e-06, No Iterations 2
DILUPBiCG:  Solving for Uy, Initial residual = 0.0419349, Final residual = 4.84678e-06, No Iterations 2
DICPCG:  Solving for p_rgh, Initial residual = 0.0828346, Final residual = 0.000178252, No Iterations 11
time step continuity errors : sum local = 0.000209489, global = -9.62044e-16, cumulative = -1.05887e-14
DILUPBiCG:  Solving for epsilon, Initial residual = 0.0188, Final residual = 6.41225e-05, No Iterations 2
DILUPBiCG:  Solving for k, Initial residual = 0.050058, Final residual = 0.000165314, No Iterations 2
BiCG:  Solving for T+T, Initial residual = 0.00186091, Final residual = 0.000114443, No Iterations 3
ExecutionTime = 0.05 s



Wall heat fluxes [W]
movingWall 0 -2.43219e-14 0 -2.43219e-14
left 0.0228882 -2.29795e-16 0 0.0228882
right -0.9507 -1.19373e-14 0 -0.9507
bottom 0 0 0 0
frontAndBack 0 0 0 0
sum -0.927812 -3.6489e-14 0 -0.927812


Wall heat fluxes [W]
topAndBottom 0 0 0 0
left 2.08449 0 0 2.08449
right -1.10744 0 0 -1.10744
frontAndBack 0 0 0 0
sum 0.977049 0 0 0.977049

Time = 16

DILUPBiCG:  Solving for Ux, Initial residual = 0.0234162, Final residual = 5.40049e-06, No Iterations 2
DILUPBiCG:  Solving for Uy, Initial residual = 0.0405884, Final residual = 4.52674e-06, No Iterations 2
DICPCG:  Solving for p_rgh, Initial residual = 0.080732, Final residual = 0.000259208, No Iterations 11
time step continuity errors : sum local = 0.000341335, global = -6.71009e-16, cumulative = -1.12597e-14
DILUPBiCG:  Solving for epsilon, Initial residual = 0.0175864, Final residual = 6.02006e-05, No Iterations 2
DILUPBiCG:  Solving for k, Initial residual = 0.0485617, Final residual = 0.000153061, No Iterations 2
BiCG:  Solving for T+T, Initial residual = 0.00186455, Final residual = 0.000182412, No Iterations 2
ExecutionTime = 0.05 s



Wall heat fluxes [W]
movingWall 0 -2.4315e-14 0 -2.4315e-14
left 0.0292452 4.33575e-17 0 0.0292452
right -0.956183 9.19049e-16 0 -0.956183
bottom 0 0 0 0
frontAndBack 0 0 0 0
sum -0.926937 -2.33526e-14 0 -0.926937


Wall heat fluxes [W]
topAndBottom 0 0 0 0
left 1.22095 0 0 1.22095
right -1.10046 0 0 -1.10046
frontAndBack 0 0 0 0
sum 0.120491 0 0 0.120491

Time = 17

DILUPBiCG:  Solving for Ux, Initial residual = 0.022144, Final residual = 5.92866e-06, No Iterations 2
DILUPBiCG:  Solving for Uy, Initial residual = 0.0398875, Final residual = 4.61749e-06, No Iterations 2
DICPCG:  Solving for p_rgh, Initial residual = 0.0820273, Final residual = 0.000698497, No Iterations 7
time step continuity errors : sum local = 0.00116717, global = -7.37448e-16, cumulative = -1.19972e-14
DILUPBiCG:  Solving for epsilon, Initial residual = 0.0164969, Final residual = 2.92383e-06, No Iterations 3
DILUPBiCG:  Solving for k, Initial residual = 0.0466062, Final residual = 0.000143362, No Iterations 2
BiCG:  Solving for T+T, Initial residual = 0.00191893, Final residual = 0.000105128, No Iterations 3
ExecutionTime = 0.05 s



Wall heat fluxes [W]
movingWall 0 -2.43105e-14 0 -2.43105e-14
left 0.0362354 3.4686e-17 0 0.0362354
right -0.958973 1.83832e-15 0 -0.958973
bottom 0 0 0 0
frontAndBack 0 0 0 0
sum -0.922738 -2.24375e-14 0 -0.922738


Wall heat fluxes [W]
topAndBottom 0 0 0 0
left 1.98207 0 0 1.98207
right -1.07278 0 0 -1.07278
frontAndBack 0 0 0 0
sum 0.909289 0 0 0.909289

Time = 18

DILUPBiCG:  Solving for Ux, Initial residual = 0.0213228, Final residual = 7.23221e-06, No Iterations 2
DILUPBiCG:  Solving for Uy, Initial residual = 0.0394437, Final residual = 0.000384827, No Iterations 1
DICPCG:  Solving for p_rgh, Initial residual = 0.079296, Final residual = 0.000780709, No Iterations 10
time step continuity errors : sum local = 0.00113297, global = -6.3051e-16, cumulative = -1.26277e-14
DILUPBiCG:  Solving for epsilon, Initial residual = 0.0153701, Final residual = 5.28183e-05, No Iterations 2
DILUPBiCG:  Solving for k, Initial residual = 0.0448898, Final residual = 0.000136154, No Iterations 2
BiCG:  Solving for T+T, Initial residual = 0.00191824, Final residual = 0.000191362, No Iterations 1
ExecutionTime = 0.05 s



Wall heat fluxes [W]
movingWall 0 -2.43075e-14 0 -2.43075e-14
left 0.0431064 1.21401e-16 0 0.0431064
right -0.963968 6.90407e-16 0 -0.963968
bottom 0 0 0 0
frontAndBack 0 0 0 0
sum -0.920862 -2.34957e-14 0 -0.920862


Wall heat fluxes [W]
topAndBottom 0 0 0 0
left 0.998646 0 0 0.998646
right -1.07003 0 0 -1.07003
frontAndBack 0 0 0 0
sum -0.0713872 0 0 -0.0713872

Time = 19

DILUPBiCG:  Solving for Ux, Initial residual = 0.0196534, Final residual = 6.41985e-06, No Iterations 2
DILUPBiCG:  Solving for Uy, Initial residual = 0.0388779, Final residual = 0.000352551, No Iterations 1
DICPCG:  Solving for p_rgh, Initial residual = 0.0790937, Final residual = 0.00064103, No Iterations 6
time step continuity errors : sum local = 0.000864248, global = -5.19337e-16, cumulative = -1.3147e-14
DILUPBiCG:  Solving for epsilon, Initial residual = 0.014645, Final residual = 4.40755e-05, No Iterations 2
DILUPBiCG:  Solving for k, Initial residual = 0.043082, Final residual = 0.000126205, No Iterations 2
BiCG:  Solving for T+T, Initial residual = 0.00194076, Final residual = 0.000148319, No Iterations 2
ExecutionTime = 0.05 s



Wall heat fluxes [W]
movingWall 0 -2.43064e-14 0 -2.43064e-14
left 0.0515994 6.07005e-16 0 0.0515994
right -0.965608 8.0556e-15 0 -0.965608
bottom 0 0 0 0
frontAndBack 0 0 0 0
sum -0.914008 -1.56438e-14 0 -0.914008


Wall heat fluxes [W]
topAndBottom 0 0 0 0
left 1.15703 0 0 1.15703
right -1.06356 0 0 -1.06356
frontAndBack 0 0 0 0
sum 0.0934739 0 0 0.0934739

Time = 20

DILUPBiCG:  Solving for Ux, Initial residual = 0.0195417, Final residual = 8.07486e-06, No Iterations 2
DILUPBiCG:  Solving for Uy, Initial residual = 0.0382474, Final residual = 0.000320238, No Iterations 1
DICPCG:  Solving for p_rgh, Initial residual = 0.0785669, Final residual = 0.000670783, No Iterations 10
time step continuity errors : sum local = 0.00095717, global = -7.9727e-16, cumulative = -1.39443e-14
DILUPBiCG:  Solving for epsilon, Initial residual = 0.0145937, Final residual = 3.78975e-05, No Iterations 2
DILUPBiCG:  Solving for k, Initial residual = 0.0417634, Final residual = 0.000118277, No Iterations 2
BiCG:  Solving for T+T, Initial residual = 0.00194596, Final residual = 0.000185701, No Iterations 1
ExecutionTime = 0.06 s



Wall heat fluxes [W]
movingWall 0 -2.43081e-14 0 -2.43081e-14
left 0.0593663 -6.24348e-16 0 0.0593663
right -0.967569 -3.45395e-15 0 -0.967569
bottom 0 0 0 0
frontAndBack 0 0 0 0
sum -0.908203 -2.83864e-14 0 -0.908203


Wall heat fluxes [W]
topAndBottom 0 0 0 0
left 1.03558 0 0 1.03558
right -1.06105 0 0 -1.06105
frontAndBack 0 0 0 0
sum -0.0254743 0 0 -0.0254743

Time = 21

DILUPBiCG:  Solving for Ux, Initial residual = 0.0184854, Final residual = 8.41598e-06, No Iterations 2
DILUPBiCG:  Solving for Uy, Initial residual = 0.0375958, Final residual = 0.000294734, No Iterations 1
DICPCG:  Solving for p_rgh, Initial residual = 0.0779823, Final residual = 0.000616358, No Iterations 9
time step continuity errors : sum local = 0.0010175, global = -8.48621e-16, cumulative = -1.47929e-14
DILUPBiCG:  Solving for epsilon, Initial residual = 0.0143597, Final residual = 3.36143e-05, No Iterations 2
DILUPBiCG:  Solving for k, Initial residual = 0.0404245, Final residual = 0.00011293, No Iterations 2
BiCG:  Solving for T+T, Initial residual = 0.00195883, Final residual = 0.000177493, No Iterations 1
ExecutionTime = 0.06 s



Wall heat fluxes [W]
movingWall 0 -2.43129e-14 0 -2.43129e-14
left 0.0673979 3.4686e-17 0 0.0673979
right -0.968822 -7.59971e-15 0 -0.968822
bottom 0 0 0 0
frontAndBack 0 0 0 0
sum -0.901424 -3.18779e-14 0 -0.901424


Wall heat fluxes [W]
topAndBottom 0 0 0 0
left 1.03343 0 0 1.03343
right -1.05864 0 0 -1.05864
frontAndBack 0 0 0 0
sum -0.0252089 0 0 -0.0252089

Time = 22

DILUPBiCG:  Solving for Ux, Initial residual = 0.0178573, Final residual = 9.2688e-06, No Iterations 2
DILUPBiCG:  Solving for Uy, Initial residual = 0.0371628, Final residual = 0.0002717, No Iterations 1
DICPCG:  Solving for p_rgh, Initial residual = 0.0781452, Final residual = 0.000602631, No Iterations 9
time step continuity errors : sum local = 0.00103292, global = -5.47395e-16, cumulative = -1.53403e-14
DILUPBiCG:  Solving for epsilon, Initial residual = 0.0147428, Final residual = 3.13169e-05, No Iterations 2
DILUPBiCG:  Solving for k, Initial residual = 0.0393041, Final residual = 0.000109797, No Iterations 2
BiCG:  Solving for T+T, Initial residual = 0.00196722, Final residual = 0.000168439, No Iterations 1
ExecutionTime = 0.06 s



Wall heat fluxes [W]
movingWall 0 -2.43216e-14 0 -2.43216e-14
left 0.0753818 -2.08116e-16 0 0.0753818
right -0.96972 8.75051e-15 0 -0.96972
bottom 0 0 0 0
frontAndBack 0 0 0 0
sum -0.894338 -1.57792e-14 0 -0.894338


Wall heat fluxes [W]
topAndBottom 0 0 0 0
left 1.02958 0 0 1.02958
right -1.05634 0 0 -1.05634
frontAndBack 0 0 0 0
sum -0.0267584 0 0 -0.0267584

Time = 23

DILUPBiCG:  Solving for Ux, Initial residual = 0.0170822, Final residual = 9.67171e-06, No Iterations 2
DILUPBiCG:  Solving for Uy, Initial residual = 0.0368214, Final residual = 0.000252453, No Iterations 1
DICPCG:  Solving for p_rgh, Initial residual = 0.0778246, Final residual = 0.000576879, No Iterations 10
time step continuity errors : sum local = 0.00117155, global = -8.34327e-16, cumulative = -1.61746e-14
DILUPBiCG:  Solving for epsilon, Initial residual = 0.0151537, Final residual = 2.98044e-05, No Iterations 2
DILUPBiCG:  Solving for k, Initial residual = 0.0392015, Final residual = 0.000107538, No Iterations 2
BiCG:  Solving for T+T, Initial residual = 0.00195711, Final residual = 0.000160266, No Iterations 1
ExecutionTime = 0.06 s



Wall heat fluxes [W]
movingWall 0 -2.43352e-14 0 -2.43352e-14
left 0.0833401 -8.32464e-16 0 0.0833401
right -0.970261 -3.45393e-15 0 -0.970261
bottom 0 0 0 0
frontAndBack 0 0 0 0
sum -0.886921 -2.86216e-14 0 -0.886921


Wall heat fluxes [W]
topAndBottom 0 0 0 0
left 1.02844 0 0 1.02844
right -1.05412 0 0 -1.05412
frontAndBack 0 0 0 0
sum -0.0256806 0 0 -0.0256806

Time = 24

DILUPBiCG:  Solving for Ux, Initial residual = 0.0162967, Final residual = 9.84809e-06, No Iterations 2
DILUPBiCG:  Solving for Uy, Initial residual = 0.0364666, Final residual = 0.000236442, No Iterations 1
DICPCG:  Solving for p_rgh, Initial residual = 0.0755854, Final residual = 0.000707575, No Iterations 10
time step continuity errors : sum local = 0.00162054, global = -7.16769e-16, cumulative = -1.68914e-14
DILUPBiCG:  Solving for epsilon, Initial residual = 0.0154308, Final residual = 2.88763e-05, No Iterations 2
DILUPBiCG:  Solving for k, Initial residual = 0.0393751, Final residual = 0.000103828, No Iterations 2
BiCG:  Solving for T+T, Initial residual = 0.00194787, Final residual = 0.000154829, No Iterations 1
ExecutionTime = 0.06 s



Wall heat fluxes [W]
movingWall 0 -2.43553e-14 0 -2.43553e-14
left 0.0921294 1.2487e-15 0 0.0921294
right -0.970456 -2.53341e-15 0 -0.970456
bottom 0 0 0 0
frontAndBack 0 0 0 0
sum -0.878326 -2.56401e-14 0 -0.878326


Wall heat fluxes [W]
topAndBottom 0 0 0 0
left 1.02731 0 0 1.02731
right -1.05199 0 0 -1.05199
frontAndBack 0 0 0 0
sum -0.0246787 0 0 -0.0246787

Time = 25

DILUPBiCG:  Solving for Ux, Initial residual = 0.01546, Final residual = 1.022e-05, No Iterations 2
DILUPBiCG:  Solving for Uy, Initial residual = 0.0360675, Final residual = 0.000221169, No Iterations 1
DICPCG:  Solving for p_rgh, Initial residual = 0.0668472, Final residual = 0.000452375, No Iterations 10
time step continuity errors : sum local = 0.00113045, global = -7.60196e-16, cumulative = -1.76516e-14
DILUPBiCG:  Solving for epsilon, Initial residual = 0.0160184, Final residual = 2.81666e-05, No Iterations 2
DILUPBiCG:  Solving for k, Initial residual = 0.0395817, Final residual = 0.00010088, No Iterations 2
BiCG:  Solving for T+T, Initial residual = 0.00192459, Final residual = 0.000150958, No Iterations 1
ExecutionTime = 0.07 s



Wall heat fluxes [W]
movingWall 0 -2.43838e-14 0 -2.43838e-14
left 0.099153 -6.9372e-16 0 0.099153
right -0.970306 1.15125e-15 0 -0.970306
bottom 0 0 0 0
frontAndBack 0 0 0 0
sum -0.871153 -2.39263e-14 0 -0.871153


Wall heat fluxes [W]
topAndBottom 0 0 0 0
left 1.02652 0 0 1.02652
right -1.04994 0 0 -1.04994
frontAndBack 0 0 0 0
sum -0.0234207 0 0 -0.0234207

Time = 26

DILUPBiCG:  Solving for Ux, Initial residual = 0.0148344, Final residual = 1.09251e-05, No Iterations 2
DILUPBiCG:  Solving for Uy, Initial residual = 0.0356455, Final residual = 0.000205428, No Iterations 1
DICPCG:  Solving for p_rgh, Initial residual = 0.0603897, Final residual = 0.000519943, No Iterations 10
time step continuity errors : sum local = 0.00141227, global = -6.62803e-16, cumulative = -1.83144e-14
DILUPBiCG:  Solving for epsilon, Initial residual = 0.0162932, Final residual = 2.77292e-05, No Iterations 2
DILUPBiCG:  Solving for k, Initial residual = 0.0401955, Final residual = 9.86746e-05, No Iterations 2
BiCG:  Solving for T+T, Initial residual = 0.00191071, Final residual = 0.000148985, No Iterations 1
ExecutionTime = 0.07 s



Wall heat fluxes [W]
movingWall 0 -2.44227e-14 0 -2.44227e-14
left 0.104373 1.10995e-15 0 0.104373
right -0.969806 -9.21523e-16 0 -0.969806
bottom 0 0 0 0
frontAndBack 0 0 0 0
sum -0.865433 -2.42343e-14 0 -0.865433


Wall heat fluxes [W]
topAndBottom 0 0 0 0
left 1.02583 0 0 1.02583
right -1.04796 0 0 -1.04796
frontAndBack 0 0 0 0
sum -0.0221375 0 0 -0.0221375

Time = 27

DILUPBiCG:  Solving for Ux, Initial residual = 0.014418, Final residual = 1.1847e-05, No Iterations 2
DILUPBiCG:  Solving for Uy, Initial residual = 0.0352167, Final residual = 0.000189979, No Iterations 1
DICPCG:  Solving for p_rgh, Initial residual = 0.0577464, Final residual = 0.000565293, No Iterations 9
time step continuity errors : sum local = 0.00170911, global = -6.10923e-16, cumulative = -1.89253e-14
DILUPBiCG:  Solving for epsilon, Initial residual = 0.0162764, Final residual = 2.74305e-05, No Iterations 2
DILUPBiCG:  Solving for k, Initial residual = 0.0406598, Final residual = 9.72966e-05, No Iterations 2
BiCG:  Solving for T+T, Initial residual = 0.00190003, Final residual = 0.000146368, No Iterations 1
ExecutionTime = 0.07 s



Wall heat fluxes [W]
movingWall 0 -2.44742e-14 0 -2.44742e-14
left 0.10732 -8.32464e-16 0 0.10732
right -0.968935 5.06785e-15 0 -0.968935
bottom 0 0 0 0
frontAndBack 0 0 0 0
sum -0.861615 -2.02388e-14 0 -0.861615


Wall heat fluxes [W]
topAndBottom 0 0 0 0
left 1.02521 0 0 1.02521
right -1.04605 0 0 -1.04605
frontAndBack 0 0 0 0
sum -0.0208405 0 0 -0.0208405

Time = 28

DILUPBiCG:  Solving for Ux, Initial residual = 0.0140909, Final residual = 1.30206e-05, No Iterations 2
DILUPBiCG:  Solving for Uy, Initial residual = 0.0346706, Final residual = 0.000172781, No Iterations 1
DICPCG:  Solving for p_rgh, Initial residual = 0.0561312, Final residual = 0.000506592, No Iterations 10
time step continuity errors : sum local = 0.00177924, global = -6.01393e-16, cumulative = -1.95267e-14
DILUPBiCG:  Solving for epsilon, Initial residual = 0.0163896, Final residual = 2.75317e-05, No Iterations 2
DILUPBiCG:  Solving for k, Initial residual = 0.0406761, Final residual = 9.63446e-05, No Iterations 2
BiCG:  Solving for T+T, Initial residual = 0.00187623, Final residual = 0.000142797, No Iterations 1
ExecutionTime = 0.07 s



Wall heat fluxes [W]
movingWall 0 -2.45398e-14 0 -2.45398e-14
left 0.11202 2.2199e-15 0 0.11202
right -0.967669 1.38127e-15 0 -0.967669
bottom 0 0 0 0
frontAndBack 0 0 0 0
sum -0.855649 -2.09386e-14 0 -0.855649


Wall heat fluxes [W]
topAndBottom 0 0 0 0
left 1.02465 0 0 1.02465
right -1.0442 0 0 -1.0442
frontAndBack 0 0 0 0
sum -0.019548 0 0 -0.019548

Time = 29

DILUPBiCG:  Solving for Ux, Initial residual = 0.0138522, Final residual = 1.46453e-05, No Iterations 2
DILUPBiCG:  Solving for Uy, Initial residual = 0.034139, Final residual = 0.000158568, No Iterations 1
DICPCG:  Solving for p_rgh, Initial residual = 0.0506737, Final residual = 0.000209149, No Iterations 11
time step continuity errors : sum local = 0.000845558, global = -5.61159e-16, cumulative = -2.00879e-14
DILUPBiCG:  Solving for epsilon, Initial residual = 0.0163957, Final residual = 2.81626e-05, No Iterations 2
DILUPBiCG:  Solving for k, Initial residual = 0.0402899, Final residual = 9.29504e-05, No Iterations 2
BiCG:  Solving for T+T, Initial residual = 0.00184786, Final residual = 0.000138472, No Iterations 1
ExecutionTime = 0.07 s



Wall heat fluxes [W]
movingWall 0 -2.462e-14 0 -2.462e-14
left 0.118843 2.77488e-15 0 0.118843
right -0.965975 4.14774e-15 0 -0.965975
bottom 0 0 0 0
frontAndBack 0 0 0 0
sum -0.847133 -1.76974e-14 0 -0.847133


Wall heat fluxes [W]
topAndBottom 0 0 0 0
left 1.02408 0 0 1.02408
right -1.0424 0 0 -1.0424
frontAndBack 0 0 0 0
sum -0.0183138 0 0 -0.0183138

Time = 30

DILUPBiCG:  Solving for Ux, Initial residual = 0.0138739, Final residual = 2.5757e-05, No Iterations 2
DILUPBiCG:  Solving for Uy, Initial residual = 0.0334844, Final residual = 0.000175477, No Iterations 1
DICPCG:  Solving for p_rgh, Initial residual = 0.0399834, Final residual = 0.000199176, No Iterations 11
time step continuity errors : sum local = 0.000804499, global = -5.74924e-16, cumulative = -2.06628e-14
DILUPBiCG:  Solving for epsilon, Initial residual = 0.0162275, Final residual = 2.88194e-05, No Iterations 2
DILUPBiCG:  Solving for k, Initial residual = 0.039716, Final residual = 8.67736e-05, No Iterations 2
BiCG:  Solving for T+T, Initial residual = 0.00182325, Final residual = 0.000134271, No Iterations 1
ExecutionTime = 0.08 s



Wall heat fluxes [W]
movingWall 0 -2.47144e-14 0 -2.47144e-14
left 0.125256 5.54976e-16 0 0.125256
right -0.963821 5.06887e-15 0 -0.963821
bottom 0 0 0 0
frontAndBack 0 0 0 0
sum -0.838565 -1.90905e-14 0 -0.838565


Wall heat fluxes [W]
topAndBottom 0 0 0 0
left 1.0235 0 0 1.0235
right -1.04065 0 0 -1.04065
frontAndBack 0 0 0 0
sum -0.017148 0 0 -0.017148

Time = 31

DILUPBiCG:  Solving for Ux, Initial residual = 0.0138562, Final residual = 3.35568e-08, No Iterations 3
DILUPBiCG:  Solving for Uy, Initial residual = 0.0324411, Final residual = 0.000199278, No Iterations 1
DICPCG:  Solving for p_rgh, Initial residual = 0.0298161, Final residual = 0.000242543, No Iterations 10
time step continuity errors : sum local = 0.000968141, global = -5.65394e-16, cumulative = -2.12282e-14
DILUPBiCG:  Solving for epsilon, Initial residual = 0.0161945, Final residual = 2.90522e-05, No Iterations 2
DILUPBiCG:  Solving for k, Initial residual = 0.0387757, Final residual = 7.64763e-05, No Iterations 2
BiCG:  Solving for T+T, Initial residual = 0.00180113, Final residual = 0.000131821, No Iterations 1
ExecutionTime = 0.08 s



Wall heat fluxes [W]
movingWall 0 -2.48213e-14 0 -2.48213e-14
left 0.132511 2.2199e-15 0 0.132511
right -0.961175 2.07422e-15 0 -0.961175
bottom 0 0 0 0
frontAndBack 0 0 0 0
sum -0.828664 -2.05272e-14 0 -0.828664


Wall heat fluxes [W]
topAndBottom 0 0 0 0
left 1.02289 0 0 1.02289
right -1.03895 0 0 -1.03895
frontAndBack 0 0 0 0
sum -0.0160593 0 0 -0.0160593

Time = 32

DILUPBiCG:  Solving for Ux, Initial residual = 0.0136967, Final residual = 2.24462e-05, No Iterations 2
DILUPBiCG:  Solving for Uy, Initial residual = 0.0311932, Final residual = 0.000191744, No Iterations 1
DICPCG:  Solving for p_rgh, Initial residual = 0.0276996, Final residual = 6.97132e-05, No Iterations 10
time step continuity errors : sum local = 0.000277748, global = -7.15739e-16, cumulative = -2.19439e-14
DILUPBiCG:  Solving for epsilon, Initial residual = 0.0160108, Final residual = 2.27996e-05, No Iterations 2
DILUPBiCG:  Solving for k, Initial residual = 0.0378806, Final residual = 6.30167e-05, No Iterations 2
BiCG:  Solving for T+T, Initial residual = 0.00177323, Final residual = 0.000130535, No Iterations 1
ExecutionTime = 0.08 s



Wall heat fluxes [W]
movingWall 0 -2.49396e-14 0 -2.49396e-14
left 0.139468 -1.10995e-15 0 0.139468
right -0.958011 1.1533e-15 0 -0.958011
bottom 0 0 0 0
frontAndBack 0 0 0 0
sum -0.818544 -2.48963e-14 0 -0.818544


Wall heat fluxes [W]
topAndBottom 0 0 0 0
left 1.02224 0 0 1.02224
right -1.03728 0 0 -1.03728
frontAndBack 0 0 0 0
sum -0.0150471 0 0 -0.0150471

Time = 33

DILUPBiCG:  Solving for Ux, Initial residual = 0.0134604, Final residual = 1.24701e-05, No Iterations 2
DILUPBiCG:  Solving for Uy, Initial residual = 0.0300259, Final residual = 0.000177428, No Iterations 1
DICPCG:  Solving for p_rgh, Initial residual = 0.0323781, Final residual = 0.000118166, No Iterations 10
time step continuity errors : sum local = 0.000448142, global = -9.5503e-16, cumulative = -2.2899e-14
DILUPBiCG:  Solving for epsilon, Initial residual = 0.0156541, Final residual = 1.3863e-05, No Iterations 2
DILUPBiCG:  Solving for k, Initial residual = 0.0365797, Final residual = 5.22433e-05, No Iterations 2
BiCG:  Solving for T+T, Initial residual = 0.00174078, Final residual = 0.000129749, No Iterations 1
ExecutionTime = 0.08 s



Wall heat fluxes [W]
movingWall 0 -2.50683e-14 0 -2.50683e-14
left 0.146076 -1.66493e-15 0 0.146076
right -0.954317 -1.06015e-14 0 -0.954317
bottom 0 0 0 0
frontAndBack 0 0 0 0
sum -0.808241 -3.73347e-14 0 -0.808241


Wall heat fluxes [W]
topAndBottom 0 0 0 0
left 1.02153 0 0 1.02153
right -1.03565 0 0 -1.03565
frontAndBack 0 0 0 0
sum -0.0141149 0 0 -0.0141149

Time = 34

DILUPBiCG:  Solving for Ux, Initial residual = 0.0132268, Final residual = 8.77541e-06, No Iterations 2
DILUPBiCG:  Solving for Uy, Initial residual = 0.0290829, Final residual = 0.000166986, No Iterations 1
DICPCG:  Solving for p_rgh, Initial residual = 0.0368425, Final residual = 0.000242746, No Iterations 10
time step continuity errors : sum local = 0.000879189, global = -7.39036e-16, cumulative = -2.3638e-14
DILUPBiCG:  Solving for epsilon, Initial residual = 0.0152946, Final residual = 1.24323e-05, No Iterations 2
DILUPBiCG:  Solving for k, Initial residual = 0.0348431, Final residual = 4.95573e-05, No Iterations 2
BiCG:  Solving for T+T, Initial residual = 0.00169904, Final residual = 0.000130176, No Iterations 1
ExecutionTime = 0.08 s



Wall heat fluxes [W]
movingWall 0 -2.52051e-14 0 -2.52051e-14
left 0.152379 -5.54976e-16 0 0.152379
right -0.950099 9.22084e-16 0 -0.950099
bottom 0 0 0 0
frontAndBack 0 0 0 0
sum -0.79772 -2.4838e-14 0 -0.79772


Wall heat fluxes [W]
topAndBottom 0 0 0 0
left 1.02076 0 0 1.02076
right -1.03404 0 0 -1.03404
frontAndBack 0 0 0 0
sum -0.0132778 0 0 -0.0132778

Time = 35

DILUPBiCG:  Solving for Ux, Initial residual = 0.0129372, Final residual = 6.70063e-06, No Iterations 2
DILUPBiCG:  Solving for Uy, Initial residual = 0.0283364, Final residual = 0.000157801, No Iterations 1
DICPCG:  Solving for p_rgh, Initial residual = 0.0399142, Final residual = 0.000219076, No Iterations 11
time step continuity errors : sum local = 0.000733063, global = -5.81276e-16, cumulative = -2.42193e-14
DILUPBiCG:  Solving for epsilon, Initial residual = 0.0148883, Final residual = 1.34902e-05, No Iterations 2
DILUPBiCG:  Solving for k, Initial residual = 0.0327949, Final residual = 5.08822e-05, No Iterations 2
BiCG:  Solving for T+T, Initial residual = 0.00166311, Final residual = 0.000131396, No Iterations 1
ExecutionTime = 0.09 s



Wall heat fluxes [W]
movingWall 0 -2.53474e-14 0 -2.53474e-14
left 0.158205 0 0 0.158205
right -0.945382 2.07511e-15 0 -0.945382
bottom 0 0 0 0
frontAndBack 0 0 0 0
sum -0.787177 -2.32722e-14 0 -0.787177


Wall heat fluxes [W]
topAndBottom 0 0 0 0
left 1.01987 0 0 1.01987
right -1.03244 0 0 -1.03244
frontAndBack 0 0 0 0
sum -0.0125638 0 0 -0.0125638

Time = 36

DILUPBiCG:  Solving for Ux, Initial residual = 0.0127054, Final residual = 5.48583e-06, No Iterations 2
DILUPBiCG:  Solving for Uy, Initial residual = 0.0277036, Final residual = 0.000147609, No Iterations 1
DICPCG:  Solving for p_rgh, Initial residual = 0.0428074, Final residual = 0.00037202, No Iterations 10
time step continuity errors : sum local = 0.00116101, global = -6.11981e-16, cumulative = -2.48313e-14
DILUPBiCG:  Solving for epsilon, Initial residual = 0.0142642, Final residual = 1.52878e-05, No Iterations 2
DILUPBiCG:  Solving for k, Initial residual = 0.0305957, Final residual = 5.43046e-05, No Iterations 2
BiCG:  Solving for T+T, Initial residual = 0.00162875, Final residual = 0.00013379, No Iterations 1
ExecutionTime = 0.09 s



Wall heat fluxes [W]
movingWall 0 -2.54923e-14 0 -2.54923e-14
left 0.163342 -1.66493e-15 0 0.163342
right -0.94022 5.30214e-15 0 -0.94022
bottom 0 0 0 0
frontAndBack 0 0 0 0
sum -0.776878 -2.18551e-14 0 -0.776878


Wall heat fluxes [W]
topAndBottom 0 0 0 0
left 1.01883 0 0 1.01883
right -1.03084 0 0 -1.03084
frontAndBack 0 0 0 0
sum -0.0120117 0 0 -0.0120117

Time = 37

DILUPBiCG:  Solving for Ux, Initial residual = 0.0123979, Final residual = 4.69301e-06, No Iterations 2
DILUPBiCG:  Solving for Uy, Initial residual = 0.027121, Final residual = 0.00013956, No Iterations 1
DICPCG:  Solving for p_rgh, Initial residual = 0.0459896, Final residual = 0.00045683, No Iterations 10
time step continuity errors : sum local = 0.0013675, global = -2.8905e-16, cumulative = -2.51203e-14
DILUPBiCG:  Solving for epsilon, Initial residual = 0.0135466, Final residual = 1.67811e-05, No Iterations 2
DILUPBiCG:  Solving for k, Initial residual = 0.0280912, Final residual = 5.83049e-05, No Iterations 2
BiCG:  Solving for T+T, Initial residual = 0.00159208, Final residual = 0.000137176, No Iterations 1
ExecutionTime = 0.09 s



Wall heat fluxes [W]
movingWall 0 -2.56367e-14 0 -2.56367e-14
left 0.167721 3.88483e-15 0 0.167721
right -0.934687 8.29973e-15 0 -0.934687
bottom 0 0 0 0
frontAndBack 0 0 0 0
sum -0.766966 -1.34522e-14 0 -0.766966


Wall heat fluxes [W]
topAndBottom 0 0 0 0
left 1.01757 0 0 1.01757
right -1.02923 0 0 -1.02923
frontAndBack 0 0 0 0
sum -0.011664 0 0 -0.011664

Time = 38

DILUPBiCG:  Solving for Ux, Initial residual = 0.0120786, Final residual = 4.22624e-06, No Iterations 2
DILUPBiCG:  Solving for Uy, Initial residual = 0.0265968, Final residual = 0.000129638, No Iterations 1
DICPCG:  Solving for p_rgh, Initial residual = 0.0491059, Final residual = 0.000247894, No Iterations 11
time step continuity errors : sum local = 0.000732647, global = -5.62218e-16, cumulative = -2.56825e-14
DILUPBiCG:  Solving for epsilon, Initial residual = 0.0127215, Final residual = 1.78709e-05, No Iterations 2
DILUPBiCG:  Solving for k, Initial residual = 0.0252893, Final residual = 6.11384e-05, No Iterations 2
BiCG:  Solving for T+T, Initial residual = 0.00155445, Final residual = 0.000141788, No Iterations 1
ExecutionTime = 0.09 s



Wall heat fluxes [W]
movingWall 0 -2.57688e-14 0 -2.57688e-14
left 0.173212 1.10995e-15 0 0.173212
right -0.92888 4.61153e-16 0 -0.92888
bottom 0 0 0 0
frontAndBack 0 0 0 0
sum -0.755668 -2.41977e-14 0 -0.755668


Wall heat fluxes [W]
topAndBottom 0 0 0 0
left 1.01606 0 0 1.01606
right -1.02761 0 0 -1.02761
frontAndBack 0 0 0 0
sum -0.0115535 0 0 -0.0115535

Time = 39

DILUPBiCG:  Solving for Ux, Initial residual = 0.0118137, Final residual = 0.000110682, No Iterations 1
DILUPBiCG:  Solving for Uy, Initial residual = 0.0261306, Final residual = 0.000119696, No Iterations 1
DICPCG:  Solving for p_rgh, Initial residual = 0.0331358, Final residual = 0.000216705, No Iterations 11
time step continuity errors : sum local = 0.000599116, global = -5.53748e-16, cumulative = -2.62363e-14
DILUPBiCG:  Solving for epsilon, Initial residual = 0.0118447, Final residual = 1.87212e-05, No Iterations 2
DILUPBiCG:  Solving for k, Initial residual = 0.0226892, Final residual = 6.30966e-05, No Iterations 2
BiCG:  Solving for T+T, Initial residual = 0.00151489, Final residual = 0.000147593, No Iterations 1
ExecutionTime = 0.09 s



Wall heat fluxes [W]
movingWall 0 -2.58964e-14 0 -2.58964e-14
left 0.177753 -1.66493e-15 0 0.177753
right -0.922907 1.31437e-14 0 -0.922907
bottom 0 0 0 0
frontAndBack 0 0 0 0
sum -0.745154 -1.44176e-14 0 -0.745154


Wall heat fluxes [W]
topAndBottom 0 0 0 0
left 1.01425 0 0 1.01425
right -1.02596 0 0 -1.02596
frontAndBack 0 0 0 0
sum -0.0117149 0 0 -0.0117149

Time = 40

DILUPBiCG:  Solving for Ux, Initial residual = 0.0114102, Final residual = 0.000102171, No Iterations 1
DILUPBiCG:  Solving for Uy, Initial residual = 0.0257039, Final residual = 0.000115293, No Iterations 1
DICPCG:  Solving for p_rgh, Initial residual = 0.0317782, Final residual = 0.000270429, No Iterations 11
time step continuity errors : sum local = 0.000722644, global = -9.5821e-16, cumulative = -2.71945e-14
DILUPBiCG:  Solving for epsilon, Initial residual = 0.0110096, Final residual = 1.91437e-05, No Iterations 2
DILUPBiCG:  Solving for k, Initial residual = 0.0201546, Final residual = 6.425e-05, No Iterations 2
BiCG:  Solving for T+T, Initial residual = 0.00147665, Final residual = 6.93386e-05, No Iterations 3
ExecutionTime = 0.1 s



Wall heat fluxes [W]
movingWall 0 -2.60118e-14 0 -2.60118e-14
left 0.181634 -3.88483e-15 0 0.181634
right -0.916903 -4.15086e-15 0 -0.916903
bottom 0 0 0 0
frontAndBack 0 0 0 0
sum -0.735268 -3.40475e-14 0 -0.735268


Wall heat fluxes [W]
topAndBottom 0 0 0 0
left 1.79274 0 0 1.79274
right -1.00632 0 0 -1.00632
frontAndBack 0 0 0 0
sum 0.786421 0 0 0.786421

Time = 41

DILUPBiCG:  Solving for Ux, Initial residual = 0.0109782, Final residual = 9.58308e-05, No Iterations 1
DILUPBiCG:  Solving for Uy, Initial residual = 0.0253682, Final residual = 0.000109175, No Iterations 1
DICPCG:  Solving for p_rgh, Initial residual = 0.0337363, Final residual = 0.000289531, No Iterations 11
time step continuity errors : sum local = 0.000740346, global = -5.00808e-16, cumulative = -2.76953e-14
DILUPBiCG:  Solving for epsilon, Initial residual = 0.0102037, Final residual = 1.91881e-05, No Iterations 2
DILUPBiCG:  Solving for k, Initial residual = 0.0177588, Final residual = 6.4875e-05, No Iterations 2
BiCG:  Solving for T+T, Initial residual = 0.00141302, Final residual = 0.000115678, No Iterations 1
ExecutionTime = 0.1 s



Wall heat fluxes [W]
movingWall 0 -2.61168e-14 0 -2.61168e-14
left 0.185004 8.32464e-16 0 0.185004
right -0.913239 8.77303e-15 0 -0.913239
bottom 0 0 0 0
frontAndBack 0 0 0 0
sum -0.728235 -1.65113e-14 0 -0.728235


Wall heat fluxes [W]
topAndBottom 0 0 0 0
left 0.948047 0 0 0.948047
right -1.00408 0 0 -1.00408
frontAndBack 0 0 0 0
sum -0.0560317 0 0 -0.0560317

Time = 42

DILUPBiCG:  Solving for Ux, Initial residual = 0.0105122, Final residual = 8.93739e-05, No Iterations 1
DILUPBiCG:  Solving for Uy, Initial residual = 0.0251271, Final residual = 0.000109778, No Iterations 1
DICPCG:  Solving for p_rgh, Initial residual = 0.0343585, Final residual = 0.000288406, No Iterations 10
time step continuity errors : sum local = 0.00070221, global = -5.93452e-16, cumulative = -2.82887e-14
DILUPBiCG:  Solving for epsilon, Initial residual = 0.00942111, Final residual = 1.89722e-05, No Iterations 2
DILUPBiCG:  Solving for k, Initial residual = 0.0156238, Final residual = 6.55121e-05, No Iterations 2
BiCG:  Solving for T+T, Initial residual = 0.00140042, Final residual = 5.06777e-05, No Iterations 3
ExecutionTime = 0.1 s



Wall heat fluxes [W]
movingWall 0 -2.62092e-14 0 -2.62092e-14
left 0.187946 -1.66493e-15 0 0.187946
right -0.907325 1.03884e-14 0 -0.907325
bottom 0 0 0 0
frontAndBack 0 0 0 0
sum -0.719379 -1.74857e-14 0 -0.719379


Wall heat fluxes [W]
topAndBottom 0 0 0 0
left 1.6745 0 0 1.6745
right -0.979546 0 0 -0.979546
frontAndBack 0 0 0 0
sum 0.694957 0 0 0.694957

Time = 43

DILUPBiCG:  Solving for Ux, Initial residual = 0.0102057, Final residual = 8.47324e-05, No Iterations 1
DILUPBiCG:  Solving for Uy, Initial residual = 0.0249427, Final residual = 0.000107266, No Iterations 1
DICPCG:  Solving for p_rgh, Initial residual = 0.032962, Final residual = 0.000202211, No Iterations 10
time step continuity errors : sum local = 0.000460623, global = -7.40624e-16, cumulative = -2.90294e-14
DILUPBiCG:  Solving for epsilon, Initial residual = 0.00868489, Final residual = 1.8381e-05, No Iterations 2
DILUPBiCG:  Solving for k, Initial residual = 0.0137323, Final residual = 6.5735e-05, No Iterations 2
BiCG:  Solving for T+T, Initial residual = 0.00133652, Final residual = 0.000103379, No Iterations 1
ExecutionTime = 0.1 s



Wall heat fluxes [W]
movingWall 0 -2.62903e-14 0 -2.62903e-14
left 0.190587 -1.38744e-15 0 0.190587
right -0.903775 1.38602e-15 0 -0.903775
bottom 0 0 0 0
frontAndBack 0 0 0 0
sum -0.713188 -2.62917e-14 0 -0.713188


Wall heat fluxes [W]
topAndBottom 0 0 0 0
left 0.925151 0 0 0.925151
right -0.978162 0 0 -0.978162
frontAndBack 0 0 0 0
sum -0.0530114 0 0 -0.0530114

Time = 44

DILUPBiCG:  Solving for Ux, Initial residual = 0.00974845, Final residual = 7.94942e-05, No Iterations 1
DILUPBiCG:  Solving for Uy, Initial residual = 0.024888, Final residual = 0.000111453, No Iterations 1
DICPCG:  Solving for p_rgh, Initial residual = 0.0321861, Final residual = 0.000292622, No Iterations 7
time step continuity errors : sum local = 0.000876734, global = -7.58094e-16, cumulative = -2.97875e-14
DILUPBiCG:  Solving for epsilon, Initial residual = 0.00801541, Final residual = 1.75246e-05, No Iterations 2
DILUPBiCG:  Solving for k, Initial residual = 0.0121139, Final residual = 6.61533e-05, No Iterations 2
BiCG:  Solving for T+T, Initial residual = 0.00131206, Final residual = 0.000126749, No Iterations 2
ExecutionTime = 0.1 s



Wall heat fluxes [W]
movingWall 0 -2.63572e-14 0 -2.63572e-14
left 0.193204 1.10995e-15 0 0.193204
right -0.898518 -1.84866e-15 0 -0.898518
bottom 0 0 0 0
frontAndBack 0 0 0 0
sum -0.705314 -2.70959e-14 0 -0.705314


Wall heat fluxes [W]
topAndBottom 0 0 0 0
left 1.13934 0 0 1.13934
right -0.972912 0 0 -0.972912
frontAndBack 0 0 0 0
sum 0.166429 0 0 0.166429

Time = 45

DILUPBiCG:  Solving for Ux, Initial residual = 0.00932061, Final residual = 7.6375e-05, No Iterations 1
DILUPBiCG:  Solving for Uy, Initial residual = 0.024862, Final residual = 0.000106682, No Iterations 1
DICPCG:  Solving for p_rgh, Initial residual = 0.0306388, Final residual = 9.80284e-05, No Iterations 12
time step continuity errors : sum local = 0.000204867, global = -6.10923e-16, cumulative = -3.03984e-14
DILUPBiCG:  Solving for epsilon, Initial residual = 0.00754569, Final residual = 1.69883e-05, No Iterations 2
DILUPBiCG:  Solving for k, Initial residual = 0.010917, Final residual = 6.61503e-05, No Iterations 2
BiCG:  Solving for T+T, Initial residual = 0.00127138, Final residual = 0.000114481, No Iterations 2
ExecutionTime = 0.11 s



Wall heat fluxes [W]
movingWall 0 -2.64129e-14 0 -2.64129e-14
left 0.195741 2.2199e-15 0 0.195741
right -0.894317 4.61679e-16 0 -0.894317
bottom 0 0 0 0
frontAndBack 0 0 0 0
sum -0.698576 -2.37313e-14 0 -0.698576


Wall heat fluxes [W]
topAndBottom 0 0 0 0
left 1.0579 0 0 1.0579
right -0.968137 0 0 -0.968137
frontAndBack 0 0 0 0
sum 0.0897583 0 0 0.0897583

Time = 46

DILUPBiCG:  Solving for Ux, Initial residual = 0.00889887, Final residual = 7.05941e-05, No Iterations 1
DILUPBiCG:  Solving for Uy, Initial residual = 0.0249849, Final residual = 0.000114643, No Iterations 1
DICPCG:  Solving for p_rgh, Initial residual = 0.0288046, Final residual = 0.000199714, No Iterations 7
time step continuity errors : sum local = 0.000538444, global = -7.58094e-16, cumulative = -3.11565e-14
DILUPBiCG:  Solving for epsilon, Initial residual = 0.0072072, Final residual = 1.68479e-05, No Iterations 2
DILUPBiCG:  Solving for k, Initial residual = 0.0100367, Final residual = 6.6987e-05, No Iterations 2
BiCG:  Solving for T+T, Initial residual = 0.0012369, Final residual = 0.000115415, No Iterations 2
ExecutionTime = 0.11 s



Wall heat fluxes [W]
movingWall 0 -2.64579e-14 0 -2.64579e-14
left 0.198429 -2.77488e-16 0 0.198429
right -0.890353 -1.61774e-15 0 -0.890353
bottom 0 0 0 0
frontAndBack 0 0 0 0
sum -0.691924 -2.83532e-14 0 -0.691924


Wall heat fluxes [W]
topAndBottom 0 0 0 0
left 1.06317 0 0 1.06317
right -0.963587 0 0 -0.963587
frontAndBack 0 0 0 0
sum 0.0995837 0 0 0.0995837

Time = 47

DILUPBiCG:  Solving for Ux, Initial residual = 0.00847444, Final residual = 6.61834e-05, No Iterations 1
DILUPBiCG:  Solving for Uy, Initial residual = 0.0250266, Final residual = 0.000116925, No Iterations 1
DICPCG:  Solving for p_rgh, Initial residual = 0.0270171, Final residual = 0.000268284, No Iterations 7
time step continuity errors : sum local = 0.000709436, global = -9.51853e-16, cumulative = -3.21083e-14
DILUPBiCG:  Solving for epsilon, Initial residual = 0.00696283, Final residual = 1.66752e-05, No Iterations 2
DILUPBiCG:  Solving for k, Initial residual = 0.00938692, Final residual = 6.73529e-05, No Iterations 2
BiCG:  Solving for T+T, Initial residual = 0.00120353, Final residual = 0.000112434, No Iterations 2
ExecutionTime = 0.11 s



Wall heat fluxes [W]
movingWall 0 -2.64934e-14 0 -2.64934e-14
left 0.201259 -2.49739e-15 0 0.201259
right -0.886899 -6.70509e-15 0 -0.886899
bottom 0 0 0 0
frontAndBack 0 0 0 0
sum -0.685639 -3.56959e-14 0 -0.685639


Wall heat fluxes [W]
topAndBottom 0 0 0 0
left 1.0447 0 0 1.0447
right -0.959303 0 0 -0.959303
frontAndBack 0 0 0 0
sum 0.0853923 0 0 0.0853923

Time = 48

DILUPBiCG:  Solving for Ux, Initial residual = 0.00806949, Final residual = 6.19246e-05, No Iterations 1
DILUPBiCG:  Solving for Uy, Initial residual = 0.0250916, Final residual = 0.000122204, No Iterations 1
DICPCG:  Solving for p_rgh, Initial residual = 0.025504, Final residual = 9.68071e-05, No Iterations 12
time step continuity errors : sum local = 0.000188817, global = -8.13152e-16, cumulative = -3.29215e-14
DILUPBiCG:  Solving for epsilon, Initial residual = 0.006762, Final residual = 1.58945e-05, No Iterations 2
DILUPBiCG:  Solving for k, Initial residual = 0.00899081, Final residual = 6.65729e-05, No Iterations 2
BiCG:  Solving for T+T, Initial residual = 0.00116619, Final residual = 0.000110247, No Iterations 2
ExecutionTime = 0.11 s



Wall heat fluxes [W]
movingWall 0 -2.65202e-14 0 -2.65202e-14
left 0.204272 5.54976e-16 0 0.204272
right -0.883888 -3.9313e-15 0 -0.883888
bottom 0 0 0 0
frontAndBack 0 0 0 0
sum -0.679616 -2.98965e-14 0 -0.679616


Wall heat fluxes [W]
topAndBottom 0 0 0 0
left 1.03544 0 0 1.03544
right -0.95518 0 0 -0.95518
frontAndBack 0 0 0 0
sum 0.0802649 0 0 0.0802649

Time = 49

DILUPBiCG:  Solving for Ux, Initial residual = 0.0077147, Final residual = 5.79926e-05, No Iterations 1
DILUPBiCG:  Solving for Uy, Initial residual = 0.0251964, Final residual = 0.000139425, No Iterations 1
DICPCG:  Solving for p_rgh, Initial residual = 0.0241301, Final residual = 0.000143901, No Iterations 6
time step continuity errors : sum local = 0.000279651, global = -6.95626e-16, cumulative = -3.36171e-14
DILUPBiCG:  Solving for epsilon, Initial residual = 0.00655913, Final residual = 1.5005e-05, No Iterations 2
DILUPBiCG:  Solving for k, Initial residual = 0.00872636, Final residual = 6.30933e-05, No Iterations 2
BiCG:  Solving for T+T, Initial residual = 0.00113418, Final residual = 0.000107345, No Iterations 2
ExecutionTime = 0.11 s



Wall heat fluxes [W]
movingWall 0 -2.65386e-14 0 -2.65386e-14
left 0.207594 8.32464e-16 0 0.207594
right -0.881332 2.54406e-15 0 -0.881332
bottom 0 0 0 0
frontAndBack 0 0 0 0
sum -0.673738 -2.3162e-14 0 -0.673738


Wall heat fluxes [W]
topAndBottom 0 0 0 0
left 1.02513 0 0 1.02513
right -0.951197 0 0 -0.951197
frontAndBack 0 0 0 0
sum 0.0739366 0 0 0.0739366

Time = 50

DILUPBiCG:  Solving for Ux, Initial residual = 0.00740057, Final residual = 5.45428e-05, No Iterations 1
DILUPBiCG:  Solving for Uy, Initial residual = 0.0252588, Final residual = 0.000157929, No Iterations 1
DICPCG:  Solving for p_rgh, Initial residual = 0.0228625, Final residual = 0.000140005, No Iterations 6
time step continuity errors : sum local = 0.000338204, global = -7.6233e-16, cumulative = -3.43794e-14
DILUPBiCG:  Solving for epsilon, Initial residual = 0.0063407, Final residual = 1.40693e-05, No Iterations 2
DILUPBiCG:  Solving for k, Initial residual = 0.00847372, Final residual = 5.57147e-05, No Iterations 2
BiCG:  Solving for T+T, Initial residual = 0.00110069, Final residual = 0.000104154, No Iterations 2
ExecutionTime = 0.12 s



Wall heat fluxes [W]
movingWall 0 -2.65506e-14 0 -2.65506e-14
left 0.211157 1.10995e-15 0 0.211157
right -0.879203 -4.85731e-15 0 -0.879203
bottom 0 0 0 0
frontAndBack 0 0 0 0
sum -0.668047 -3.02979e-14 0 -0.668047


Wall heat fluxes [W]
topAndBottom 0 0 0 0
left 1.01617 0 0 1.01617
right -0.947339 0 0 -0.947339
frontAndBack 0 0 0 0
sum 0.06883 0 0 0.06883

Time = 51

DILUPBiCG:  Solving for Ux, Initial residual = 0.00712679, Final residual = 5.18482e-05, No Iterations 1
DILUPBiCG:  Solving for Uy, Initial residual = 0.0253146, Final residual = 0.00018392, No Iterations 1
DICPCG:  Solving for p_rgh, Initial residual = 0.0207218, Final residual = 0.000144373, No Iterations 6
time step continuity errors : sum local = 0.000391202, global = -8.85679e-16, cumulative = -3.52651e-14
DILUPBiCG:  Solving for epsilon, Initial residual = 0.0061279, Final residual = 1.32601e-05, No Iterations 2
DILUPBiCG:  Solving for k, Initial residual = 0.00823589, Final residual = 4.7797e-05, No Iterations 2
BiCG:  Solving for T+T, Initial residual = 0.00106953, Final residual = 0.0001007, No Iterations 2
ExecutionTime = 0.12 s



Wall heat fluxes [W]
movingWall 0 -2.65579e-14 0 -2.65579e-14
left 0.214936 -3.05237e-15 0 0.214936
right -0.877467 -1.15673e-15 0 -0.877467
bottom 0 0 0 0
frontAndBack 0 0 0 0
sum -0.66253 -3.0767e-14 0 -0.66253


Wall heat fluxes [W]
topAndBottom 0 0 0 0
left 1.00768 0 0 1.00768
right -0.943601 0 0 -0.943601
frontAndBack 0 0 0 0
sum 0.064084 0 0 0.064084

Time = 52

DILUPBiCG:  Solving for Ux, Initial residual = 0.00687782, Final residual = 4.96148e-05, No Iterations 1
DILUPBiCG:  Solving for Uy, Initial residual = 0.0253739, Final residual = 0.000214002, No Iterations 1
DICPCG:  Solving for p_rgh, Initial residual = 0.0187421, Final residual = 0.000160046, No Iterations 6
time step continuity errors : sum local = 0.000459267, global = -6.59627e-16, cumulative = -3.59248e-14
DILUPBiCG:  Solving for epsilon, Initial residual = 0.00598181, Final residual = 1.26349e-05, No Iterations 2
DILUPBiCG:  Solving for k, Initial residual = 0.00807411, Final residual = 4.17857e-05, No Iterations 2
BiCG:  Solving for T+T, Initial residual = 0.00104091, Final residual = 9.70592e-05, No Iterations 2
ExecutionTime = 0.12 s



Wall heat fluxes [W]
movingWall 0 -2.65621e-14 0 -2.65621e-14
left 0.218926 2.77488e-16 0 0.218926
right -0.876079 5.55294e-15 0 -0.876079
bottom 0 0 0 0
frontAndBack 0 0 0 0
sum -0.657153 -2.07317e-14 0 -0.657153


Wall heat fluxes [W]
topAndBottom 0 0 0 0
left 0.99979 0 0 0.99979
right -0.93998 0 0 -0.93998
frontAndBack 0 0 0 0
sum 0.0598103 0 0 0.0598103

Time = 53

DILUPBiCG:  Solving for Ux, Initial residual = 0.00663835, Final residual = 4.75301e-05, No Iterations 1
DILUPBiCG:  Solving for Uy, Initial residual = 0.0254375, Final residual = 0.000246522, No Iterations 1
DICPCG:  Solving for p_rgh, Initial residual = 0.0167815, Final residual = 7.18265e-05, No Iterations 10
time step continuity errors : sum local = 0.000135805, global = -8.39621e-16, cumulative = -3.67644e-14
DILUPBiCG:  Solving for epsilon, Initial residual = 0.00583306, Final residual = 1.2196e-05, No Iterations 2
DILUPBiCG:  Solving for k, Initial residual = 0.00797937, Final residual = 3.75766e-05, No Iterations 2
BiCG:  Solving for T+T, Initial residual = 0.00101573, Final residual = 9.32652e-05, No Iterations 2
ExecutionTime = 0.12 s



Wall heat fluxes [W]
movingWall 0 -2.65643e-14 0 -2.65643e-14
left 0.22313 1.94242e-15 0 0.22313
right -0.874993 -3.93387e-15 0 -0.874993
bottom 0 0 0 0
frontAndBack 0 0 0 0
sum -0.651863 -2.85558e-14 0 -0.651863


Wall heat fluxes [W]
topAndBottom 0 0 0 0
left 0.992418 0 0 0.992418
right -0.936478 0 0 -0.936478
frontAndBack 0 0 0 0
sum 0.0559407 0 0 0.0559407

Time = 54

DILUPBiCG:  Solving for Ux, Initial residual = 0.00650545, Final residual = 4.53442e-05, No Iterations 1
DILUPBiCG:  Solving for Uy, Initial residual = 0.0254783, Final residual = 2.35281e-06, No Iterations 2
DICPCG:  Solving for p_rgh, Initial residual = 0.0172828, Final residual = 6.78209e-05, No Iterations 6
time step continuity errors : sum local = 0.000188513, global = -7.95152e-16, cumulative = -3.75595e-14
DILUPBiCG:  Solving for epsilon, Initial residual = 0.00569455, Final residual = 1.18055e-05, No Iterations 2
DILUPBiCG:  Solving for k, Initial residual = 0.00786016, Final residual = 3.46869e-05, No Iterations 2
BiCG:  Solving for T+T, Initial residual = 0.000993127, Final residual = 8.93595e-05, No Iterations 2
ExecutionTime = 0.12 s



Wall heat fluxes [W]
movingWall 0 -2.65656e-14 0 -2.65656e-14
left 0.227492 -3.60734e-15 0 0.227492
right -0.874158 3.70332e-15 0 -0.874158
bottom 0 0 0 0
frontAndBack 0 0 0 0
sum -0.646666 -2.64696e-14 0 -0.646666


Wall heat fluxes [W]
topAndBottom 0 0 0 0
left 0.985588 0 0 0.985588
right -0.933095 0 0 -0.933095
frontAndBack 0 0 0 0
sum 0.0524928 0 0 0.0524928

Time = 55

DILUPBiCG:  Solving for Ux, Initial residual = 0.00638519, Final residual = 4.4812e-05, No Iterations 1
DILUPBiCG:  Solving for Uy, Initial residual = 0.0255335, Final residual = 2.19367e-06, No Iterations 2
DICPCG:  Solving for p_rgh, Initial residual = 0.0182121, Final residual = 7.99196e-05, No Iterations 6
time step continuity errors : sum local = 0.00022975, global = -7.03037e-16, cumulative = -3.82626e-14
DILUPBiCG:  Solving for epsilon, Initial residual = 0.00553677, Final residual = 1.15368e-05, No Iterations 2
DILUPBiCG:  Solving for k, Initial residual = 0.00770366, Final residual = 3.28648e-05, No Iterations 2
BiCG:  Solving for T+T, Initial residual = 0.000972516, Final residual = 8.54268e-05, No Iterations 2
ExecutionTime = 0.13 s



Wall heat fluxes [W]
movingWall 0 -2.65667e-14 0 -2.65667e-14
left 0.231998 3.32986e-15 0 0.231998
right -0.873524 -5.3239e-15 0 -0.873524
bottom 0 0 0 0
frontAndBack 0 0 0 0
sum -0.641527 -2.85607e-14 0 -0.641527


Wall heat fluxes [W]
topAndBottom 0 0 0 0
left 0.979266 0 0 0.979266
right -0.929833 0 0 -0.929833
frontAndBack 0 0 0 0
sum 0.0494329 0 0 0.0494329

Time = 56

DILUPBiCG:  Solving for Ux, Initial residual = 0.00625323, Final residual = 4.55307e-05, No Iterations 1
DILUPBiCG:  Solving for Uy, Initial residual = 0.0255905, Final residual = 1.99156e-06, No Iterations 2
DICPCG:  Solving for p_rgh, Initial residual = 0.0188304, Final residual = 0.000107833, No Iterations 6
time step continuity errors : sum local = 0.000315403, global = -6.35275e-16, cumulative = -3.88978e-14
DILUPBiCG:  Solving for epsilon, Initial residual = 0.00536446, Final residual = 1.13491e-05, No Iterations 2
DILUPBiCG:  Solving for k, Initial residual = 0.00751207, Final residual = 3.15739e-05, No Iterations 2
BiCG:  Solving for T+T, Initial residual = 0.000953939, Final residual = 8.14499e-05, No Iterations 2
ExecutionTime = 0.13 s



Wall heat fluxes [W]
movingWall 0 -2.65681e-14 0 -2.65681e-14
left 0.236616 2.77488e-15 0 0.236616
right -0.873044 3.47188e-15 0 -0.873044
bottom 0 0 0 0
frontAndBack 0 0 0 0
sum -0.636428 -2.03213e-14 0 -0.636428


Wall heat fluxes [W]
topAndBottom 0 0 0 0
left 0.973455 0 0 0.973455
right -0.926692 0 0 -0.926692
frontAndBack 0 0 0 0
sum 0.0467631 0 0 0.0467631

Time = 57

DILUPBiCG:  Solving for Ux, Initial residual = 0.00616423, Final residual = 4.68158e-05, No Iterations 1
DILUPBiCG:  Solving for Uy, Initial residual = 0.0256585, Final residual = 1.78127e-06, No Iterations 2
DICPCG:  Solving for p_rgh, Initial residual = 0.0189419, Final residual = 0.000136979, No Iterations 6
time step continuity errors : sum local = 0.000396288, global = -8.87267e-16, cumulative = -3.97851e-14
DILUPBiCG:  Solving for epsilon, Initial residual = 0.00518586, Final residual = 1.12113e-05, No Iterations 2
DILUPBiCG:  Solving for k, Initial residual = 0.00733076, Final residual = 3.04102e-05, No Iterations 2
BiCG:  Solving for T+T, Initial residual = 0.000937335, Final residual = 7.75173e-05, No Iterations 2
ExecutionTime = 0.13 s



Wall heat fluxes [W]
movingWall 0 -2.65699e-14 0 -2.65699e-14
left 0.241333 2.77488e-16 0 0.241333
right -0.872672 -6.94523e-15 0 -0.872672
bottom 0 0 0 0
frontAndBack 0 0 0 0
sum -0.631339 -3.32376e-14 0 -0.631339


Wall heat fluxes [W]
topAndBottom 0 0 0 0
left 0.968149 0 0 0.968149
right -0.92367 0 0 -0.92367
frontAndBack 0 0 0 0
sum 0.0444785 0 0 0.0444785

Time = 58

DILUPBiCG:  Solving for Ux, Initial residual = 0.00610623, Final residual = 4.83318e-05, No Iterations 1
DILUPBiCG:  Solving for Uy, Initial residual = 0.0257187, Final residual = 1.58104e-06, No Iterations 2
DICPCG:  Solving for p_rgh, Initial residual = 0.0183164, Final residual = 0.000141955, No Iterations 6
time step continuity errors : sum local = 0.000405209, global = -8.60797e-16, cumulative = -4.06459e-14
DILUPBiCG:  Solving for epsilon, Initial residual = 0.00500404, Final residual = 1.10947e-05, No Iterations 2
DILUPBiCG:  Solving for k, Initial residual = 0.0071492, Final residual = 2.93681e-05, No Iterations 2
BiCG:  Solving for T+T, Initial residual = 0.000923042, Final residual = 7.39563e-05, No Iterations 2
ExecutionTime = 0.13 s



Wall heat fluxes [W]
movingWall 0 -2.65725e-14 0 -2.65725e-14
left 0.246102 -8.32464e-16 0 0.246102
right -0.872367 -4.40014e-15 0 -0.872367
bottom 0 0 0 0
frontAndBack 0 0 0 0
sum -0.626265 -3.18051e-14 0 -0.626265


Wall heat fluxes [W]
topAndBottom 0 0 0 0
left 0.96334 0 0 0.96334
right -0.920767 0 0 -0.920767
frontAndBack 0 0 0 0
sum 0.0425736 0 0 0.0425736

Time = 59

DILUPBiCG:  Solving for Ux, Initial residual = 0.00605904, Final residual = 5.02232e-05, No Iterations 1
DILUPBiCG:  Solving for Uy, Initial residual = 0.0257683, Final residual = 1.38766e-06, No Iterations 2
DICPCG:  Solving for p_rgh, Initial residual = 0.0173903, Final residual = 0.000117739, No Iterations 6
time step continuity errors : sum local = 0.000320266, global = -5.75982e-16, cumulative = -4.12219e-14
DILUPBiCG:  Solving for epsilon, Initial residual = 0.00483242, Final residual = 1.09735e-05, No Iterations 2
DILUPBiCG:  Solving for k, Initial residual = 0.00694084, Final residual = 2.82916e-05, No Iterations 2
BiCG:  Solving for T+T, Initial residual = 0.000910246, Final residual = 9.04149e-05, No Iterations 1
ExecutionTime = 0.13 s



Wall heat fluxes [W]
movingWall 0 -2.65771e-14 0 -2.65771e-14
left 0.250673 1.94242e-15 0 0.250673
right -0.872074 3.70463e-15 0 -0.872074
bottom 0 0 0 0
frontAndBack 0 0 0 0
sum -0.621402 -2.093e-14 0 -0.621402


Wall heat fluxes [W]
topAndBottom 0 0 0 0
left 0.906824 0 0 0.906824
right -0.919676 0 0 -0.919676
frontAndBack 0 0 0 0
sum -0.0128518 0 0 -0.0128518

Time = 60

DILUPBiCG:  Solving for Ux, Initial residual = 0.00603441, Final residual = 5.2347e-05, No Iterations 1
DILUPBiCG:  Solving for Uy, Initial residual = 0.0258101, Final residual = 1.20259e-06, No Iterations 2
DICPCG:  Solving for p_rgh, Initial residual = 0.0169607, Final residual = 9.59079e-05, No Iterations 6
time step continuity errors : sum local = 0.00021604, global = -7.46448e-16, cumulative = -4.19683e-14
DILUPBiCG:  Solving for epsilon, Initial residual = 0.00468339, Final residual = 1.08507e-05, No Iterations 2
DILUPBiCG:  Solving for k, Initial residual = 0.00675233, Final residual = 2.71606e-05, No Iterations 2
BiCG:  Solving for T+T, Initial residual = 0.000904442, Final residual = 8.96357e-05, No Iterations 1
ExecutionTime = 0.14 s



Wall heat fluxes [W]
movingWall 0 -2.65833e-14 0 -2.65833e-14
left 0.25525 -3.32986e-15 0 0.25525
right -0.871635 1.8525e-15 0 -0.871635
bottom 0 0 0 0
frontAndBack 0 0 0 0
sum -0.616385 -2.80606e-14 0 -0.616385


Wall heat fluxes [W]
topAndBottom 0 0 0 0
left 0.909273 0 0 0.909273
right -0.918599 0 0 -0.918599
frontAndBack 0 0 0 0
sum -0.00932565 0 0 -0.00932565

Time = 61

DILUPBiCG:  Solving for Ux, Initial residual = 0.00604326, Final residual = 5.58356e-05, No Iterations 1
DILUPBiCG:  Solving for Uy, Initial residual = 0.0258465, Final residual = 1.32091e-06, No Iterations 2
DICPCG:  Solving for p_rgh, Initial residual = 0.0160204, Final residual = 0.000123956, No Iterations 6
time step continuity errors : sum local = 0.00032471, global = -5.41043e-16, cumulative = -4.25094e-14
DILUPBiCG:  Solving for epsilon, Initial residual = 0.00452278, Final residual = 1.07024e-05, No Iterations 2
DILUPBiCG:  Solving for k, Initial residual = 0.00655177, Final residual = 2.60936e-05, No Iterations 2
BiCG:  Solving for T+T, Initial residual = 0.000897031, Final residual = 8.69779e-05, No Iterations 1
ExecutionTime = 0.14 s



Wall heat fluxes [W]
movingWall 0 -2.65915e-14 0 -2.65915e-14
left 0.259956 2.49739e-15 0 0.259956
right -0.871186 1.85217e-15 0 -0.871186
bottom 0 0 0 0
frontAndBack 0 0 0 0
sum -0.611231 -2.22419e-14 0 -0.611231


Wall heat fluxes [W]
topAndBottom 0 0 0 0
left 0.90644 0 0 0.90644
right -0.917542 0 0 -0.917542
frontAndBack 0 0 0 0
sum -0.0111018 0 0 -0.0111018

Time = 62

DILUPBiCG:  Solving for Ux, Initial residual = 0.00607492, Final residual = 5.63757e-07, No Iterations 2
DILUPBiCG:  Solving for Uy, Initial residual = 0.0258754, Final residual = 1.4305e-06, No Iterations 2
DICPCG:  Solving for p_rgh, Initial residual = 0.0148197, Final residual = 5.92201e-05, No Iterations 12
time step continuity errors : sum local = 0.000121202, global = -8.11034e-16, cumulative = -4.33204e-14
DILUPBiCG:  Solving for epsilon, Initial residual = 0.00434784, Final residual = 1.05284e-05, No Iterations 2
DILUPBiCG:  Solving for k, Initial residual = 0.00630796, Final residual = 2.49792e-05, No Iterations 2
BiCG:  Solving for T+T, Initial residual = 0.000890745, Final residual = 8.44159e-05, No Iterations 1
ExecutionTime = 0.14 s



Wall heat fluxes [W]
movingWall 0 -2.66021e-14 0 -2.66021e-14
left 0.26466 -3.05237e-15 0 0.26466
right -0.870682 -1.15699e-15 0 -0.870682
bottom 0 0 0 0
frontAndBack 0 0 0 0
sum -0.606022 -3.08114e-14 0 -0.606022


Wall heat fluxes [W]
topAndBottom 0 0 0 0
left 0.90585 0 0 0.90585
right -0.916503 0 0 -0.916503
frontAndBack 0 0 0 0
sum -0.0106527 0 0 -0.0106527

Time = 63

DILUPBiCG:  Solving for Ux, Initial residual = 0.00610485, Final residual = 5.50655e-07, No Iterations 2
DILUPBiCG:  Solving for Uy, Initial residual = 0.0259312, Final residual = 1.53918e-06, No Iterations 2
DICPCG:  Solving for p_rgh, Initial residual = 0.0134453, Final residual = 5.67956e-05, No Iterations 12
time step continuity errors : sum local = 0.00011665, global = -8.06798e-16, cumulative = -4.41272e-14
DILUPBiCG:  Solving for epsilon, Initial residual = 0.00418449, Final residual = 1.03332e-05, No Iterations 2
DILUPBiCG:  Solving for k, Initial residual = 0.00609322, Final residual = 2.40142e-05, No Iterations 2
BiCG:  Solving for T+T, Initial residual = 0.000884298, Final residual = 8.20837e-05, No Iterations 1
ExecutionTime = 0.14 s



Wall heat fluxes [W]
movingWall 0 -2.66151e-14 0 -2.66151e-14
left 0.269226 0 0 0.269226
right -0.870104 -5.09472e-15 0 -0.870104
bottom 0 0 0 0
frontAndBack 0 0 0 0
sum -0.600878 -3.17098e-14 0 -0.600878


Wall heat fluxes [W]
topAndBottom 0 0 0 0
left 0.904844 0 0 0.904844
right -0.915482 0 0 -0.915482
frontAndBack 0 0 0 0
sum -0.0106379 0 0 -0.0106379

Time = 64

DILUPBiCG:  Solving for Ux, Initial residual = 0.00615202, Final residual = 5.43403e-07, No Iterations 2
DILUPBiCG:  Solving for Uy, Initial residual = 0.0259456, Final residual = 1.64622e-06, No Iterations 2
DICPCG:  Solving for p_rgh, Initial residual = 0.0124001, Final residual = 5.18495e-05, No Iterations 12
time step continuity errors : sum local = 0.000106851, global = -7.32683e-16, cumulative = -4.48599e-14
DILUPBiCG:  Solving for epsilon, Initial residual = 0.00403035, Final residual = 1.01138e-05, No Iterations 2
DILUPBiCG:  Solving for k, Initial residual = 0.00588193, Final residual = 2.30434e-05, No Iterations 2
BiCG:  Solving for T+T, Initial residual = 0.000877992, Final residual = 8.0025e-05, No Iterations 1
ExecutionTime = 0.14 s



Wall heat fluxes [W]
movingWall 0 -2.66305e-14 0 -2.66305e-14
left 0.273622 1.10995e-15 0 0.273622
right -0.869433 -2.31902e-16 0 -0.869433
bottom 0 0 0 0
frontAndBack 0 0 0 0
sum -0.595811 -2.57524e-14 0 -0.595811


Wall heat fluxes [W]
topAndBottom 0 0 0 0
left 0.904089 0 0 0.904089
right -0.914477 0 0 -0.914477
frontAndBack 0 0 0 0
sum -0.010388 0 0 -0.010388

Time = 65

DILUPBiCG:  Solving for Ux, Initial residual = 0.00621809, Final residual = 5.42728e-07, No Iterations 2
DILUPBiCG:  Solving for Uy, Initial residual = 0.0259476, Final residual = 1.78575e-06, No Iterations 2
DICPCG:  Solving for p_rgh, Initial residual = 0.011526, Final residual = 9.21473e-05, No Iterations 11
time step continuity errors : sum local = 0.000190033, global = -6.56451e-16, cumulative = -4.55163e-14
DILUPBiCG:  Solving for epsilon, Initial residual = 0.00388323, Final residual = 9.86835e-06, No Iterations 2
DILUPBiCG:  Solving for k, Initial residual = 0.0056468, Final residual = 2.20528e-05, No Iterations 2
BiCG:  Solving for T+T, Initial residual = 0.000871863, Final residual = 7.82777e-05, No Iterations 1
ExecutionTime = 0.15 s



Wall heat fluxes [W]
movingWall 0 -2.66482e-14 0 -2.66482e-14
left 0.277826 -2.77488e-16 0 0.277826
right -0.868658 5.5582e-15 0 -0.868658
bottom 0 0 0 0
frontAndBack 0 0 0 0
sum -0.590832 -2.13675e-14 0 -0.590832


Wall heat fluxes [W]
topAndBottom 0 0 0 0
left 0.903337 0 0 0.903337
right -0.913488 0 0 -0.913488
frontAndBack 0 0 0 0
sum -0.0101513 0 0 -0.0101513

Time = 66

DILUPBiCG:  Solving for Ux, Initial residual = 0.00628556, Final residual = 5.44218e-07, No Iterations 2
DILUPBiCG:  Solving for Uy, Initial residual = 0.0259518, Final residual = 1.92482e-06, No Iterations 2
DICPCG:  Solving for p_rgh, Initial residual = 0.0109126, Final residual = 5.08508e-05, No Iterations 11
time step continuity errors : sum local = 0.000104282, global = -7.19978e-16, cumulative = -4.62363e-14
DILUPBiCG:  Solving for epsilon, Initial residual = 0.00373257, Final residual = 9.58289e-06, No Iterations 2
DILUPBiCG:  Solving for k, Initial residual = 0.0053972, Final residual = 2.10684e-05, No Iterations 2
BiCG:  Solving for T+T, Initial residual = 0.000865982, Final residual = 7.69129e-05, No Iterations 1
ExecutionTime = 0.15 s



Wall heat fluxes [W]
movingWall 0 -2.66681e-14 0 -2.66681e-14
left 0.281826 -2.77488e-15 0 0.281826
right -0.867771 3.70581e-15 0 -0.867771
bottom 0 0 0 0
frontAndBack 0 0 0 0
sum -0.585945 -2.57372e-14 0 -0.585945


Wall heat fluxes [W]
topAndBottom 0 0 0 0
left 0.902635 0 0 0.902635
right -0.912512 0 0 -0.912512
frontAndBack 0 0 0 0
sum -0.00987758 0 0 -0.00987758

Time = 67

DILUPBiCG:  Solving for Ux, Initial residual = 0.00637063, Final residual = 5.52083e-07, No Iterations 2
DILUPBiCG:  Solving for Uy, Initial residual = 0.0259584, Final residual = 2.05901e-06, No Iterations 2
DICPCG:  Solving for p_rgh, Initial residual = 0.0103234, Final residual = 5.15253e-05, No Iterations 10
time step continuity errors : sum local = 0.000105589, global = -4.98691e-16, cumulative = -4.6735e-14
DILUPBiCG:  Solving for epsilon, Initial residual = 0.00357494, Final residual = 9.25172e-06, No Iterations 2
DILUPBiCG:  Solving for k, Initial residual = 0.00512663, Final residual = 2.00601e-05, No Iterations 2
BiCG:  Solving for T+T, Initial residual = 0.000860314, Final residual = 7.5933e-05, No Iterations 1
ExecutionTime = 0.15 s



Wall heat fluxes [W]
movingWall 0 -2.66899e-14 0 -2.66899e-14
left 0.285628 -1.10995e-15 0 0.285628
right -0.866767 6.71688e-15 0 -0.866767
bottom 0 0 0 0
frontAndBack 0 0 0 0
sum -0.581139 -2.1083e-14 0 -0.581139


Wall heat fluxes [W]
topAndBottom 0 0 0 0
left 0.901947 0 0 0.901947
right -0.911549 0 0 -0.911549
frontAndBack 0 0 0 0
sum -0.00960243 0 0 -0.00960243

Time = 68

DILUPBiCG:  Solving for Ux, Initial residual = 0.00645348, Final residual = 5.62122e-07, No Iterations 2
DILUPBiCG:  Solving for Uy, Initial residual = 0.0259654, Final residual = 2.19418e-06, No Iterations 2
DICPCG:  Solving for p_rgh, Initial residual = 0.00948661, Final residual = 3.78984e-05, No Iterations 11
time step continuity errors : sum local = 7.90565e-05, global = -5.74924e-16, cumulative = -4.73099e-14
DILUPBiCG:  Solving for epsilon, Initial residual = 0.00341549, Final residual = 8.89935e-06, No Iterations 2
DILUPBiCG:  Solving for k, Initial residual = 0.00485778, Final residual = 1.91377e-05, No Iterations 2
BiCG:  Solving for T+T, Initial residual = 0.000854913, Final residual = 7.53627e-05, No Iterations 1
ExecutionTime = 0.15 s



Wall heat fluxes [W]
movingWall 0 -2.67131e-14 0 -2.67131e-14
left 0.28923 3.88483e-15 0 0.28923
right -0.865648 5.32697e-15 0 -0.865648
bottom 0 0 0 0
frontAndBack 0 0 0 0
sum -0.576419 -1.75013e-14 0 -0.576419


Wall heat fluxes [W]
topAndBottom 0 0 0 0
left 0.901266 0 0 0.901266
right -0.910598 0 0 -0.910598
frontAndBack 0 0 0 0
sum -0.00933185 0 0 -0.00933185

Time = 69

DILUPBiCG:  Solving for Ux, Initial residual = 0.00651817, Final residual = 5.70897e-07, No Iterations 2
DILUPBiCG:  Solving for Uy, Initial residual = 0.025965, Final residual = 2.34071e-06, No Iterations 2
DICPCG:  Solving for p_rgh, Initial residual = 0.00842372, Final residual = 5.29095e-05, No Iterations 11
time step continuity errors : sum local = 0.000111667, global = -6.0457e-16, cumulative = -4.79145e-14
DILUPBiCG:  Solving for epsilon, Initial residual = 0.00325297, Final residual = 8.52828e-06, No Iterations 2
DILUPBiCG:  Solving for k, Initial residual = 0.00460393, Final residual = 1.82346e-05, No Iterations 2
BiCG:  Solving for T+T, Initial residual = 0.000849751, Final residual = 7.51904e-05, No Iterations 1
ExecutionTime = 0.15 s



Wall heat fluxes [W]
movingWall 0 -2.67369e-14 0 -2.67369e-14
left 0.292649 1.10995e-15 0 0.292649
right -0.864417 2.31604e-15 0 -0.864417
bottom 0 0 0 0
frontAndBack 0 0 0 0
sum -0.571768 -2.3311e-14 0 -0.571768


Wall heat fluxes [W]
topAndBottom 0 0 0 0
left 0.900577 0 0 0.900577
right -0.909656 0 0 -0.909656
frontAndBack 0 0 0 0
sum -0.00907848 0 0 -0.00907848

Time = 70

DILUPBiCG:  Solving for Ux, Initial residual = 0.00658707, Final residual = 5.81252e-07, No Iterations 2
DILUPBiCG:  Solving for Uy, Initial residual = 0.0259578, Final residual = 2.49202e-06, No Iterations 2
[...]
BiCG:  Solving for T+T, Initial residual = 3.29313e-09, Final residual = 2.46707e-10, No Iterations 1
ExecutionTime = 1.99 s



Wall heat fluxes [W]
movingWall 0 -3.05924e-14 0 -3.05924e-14
left 0.594111 1.66493e-15 0 0.594111
right -0.594111 3.2852e-15 0 -0.594111
bottom 0 0 0 0
frontAndBack 0 0 0 0
sum 1.73145e-07 -2.56423e-14 0 1.73145e-07


Wall heat fluxes [W]
topAndBottom 0 0 0 0
left 0.594111 0 0 0.594111
right -0.594111 0 0 -0.594111
frontAndBack 0 0 0 0
sum 2.15515e-08 0 0 2.15515e-08

Time = 984

DILUPBiCG:  Solving for Ux, Initial residual = 0.0159551, Final residual = 4.41771e-06, No Iterations 2
DILUPBiCG:  Solving for Uy, Initial residual = 0.0339997, Final residual = 1.33324e-05, No Iterations 2
DICPCG:  Solving for p_rgh, Initial residual = 7.54471e-08, Final residual = 6.28286e-10, No Iterations 6
time step continuity errors : sum local = 2.39639e-09, global = -4.52104e-16, cumulative = -6.93121e-13
DILUPBiCG:  Solving for epsilon, Initial residual = 4.91423e-08, Final residual = 1.7387e-10, No Iterations 2
DILUPBiCG:  Solving for k, Initial residual = 9.35714e-08, Final residual = 2.36981e-11, No Iterations 3
BiCG:  Solving for T+T, Initial residual = 3.26333e-09, Final residual = 2.62774e-10, No Iterations 1
ExecutionTime = 2 s



Wall heat fluxes [W]
movingWall 0 -3.05924e-14 0 -3.05924e-14
left 0.594111 8.32464e-16 0 0.594111
right -0.594111 1.07905e-14 0 -0.594111
bottom 0 0 0 0
frontAndBack 0 0 0 0
sum 1.74737e-07 -1.89694e-14 0 1.74737e-07


Wall heat fluxes [W]
topAndBottom 0 0 0 0
left 0.594111 0 0 0.594111
right -0.594111 0 0 -0.594111
frontAndBack 0 0 0 0
sum 1.79543e-08 0 0 1.79543e-08

Time = 985

DILUPBiCG:  Solving for Ux, Initial residual = 0.0159551, Final residual = 4.41771e-06, No Iterations 2
DILUPBiCG:  Solving for Uy, Initial residual = 0.0339997, Final residual = 1.33324e-05, No Iterations 2
DICPCG:  Solving for p_rgh, Initial residual = 7.64342e-08, Final residual = 4.13654e-10, No Iterations 12
time step continuity errors : sum local = 1.05154e-09, global = -5.80218e-16, cumulative = -6.93702e-13
DILUPBiCG:  Solving for epsilon, Initial residual = 4.93819e-08, Final residual = 1.77888e-10, No Iterations 2
DILUPBiCG:  Solving for k, Initial residual = 9.3366e-08, Final residual = 2.41144e-11, No Iterations 3
BiCG:  Solving for T+T, Initial residual = 3.23119e-09, Final residual = 2.82609e-10, No Iterations 1
ExecutionTime = 2 s



Wall heat fluxes [W]
movingWall 0 -3.05924e-14 0 -3.05924e-14
left 0.594111 8.32464e-16 0 0.594111
right -0.594111 8.91267e-15 0 -0.594111
bottom 0 0 0 0
frontAndBack 0 0 0 0
sum 1.76318e-07 -2.08473e-14 0 1.76318e-07


Wall heat fluxes [W]
topAndBottom 0 0 0 0
left 0.594111 0 0 0.594111
right -0.594111 0 0 -0.594111
frontAndBack 0 0 0 0
sum 1.42894e-08 0 0 1.42894e-08

Time = 986

DILUPBiCG:  Solving for Ux, Initial residual = 0.0159551, Final residual = 4.41771e-06, No Iterations 2
DILUPBiCG:  Solving for Uy, Initial residual = 0.0339997, Final residual = 1.33324e-05, No Iterations 2
DICPCG:  Solving for p_rgh, Initial residual = 7.72471e-08, Final residual = 3.6157e-10, No Iterations 6
time step continuity errors : sum local = 9.69998e-10, global = -7.54918e-16, cumulative = -6.94456e-13
DILUPBiCG:  Solving for epsilon, Initial residual = 4.94087e-08, Final residual = 1.81209e-10, No Iterations 2
DILUPBiCG:  Solving for k, Initial residual = 9.28131e-08, Final residual = 2.44332e-11, No Iterations 3
BiCG:  Solving for T+T, Initial residual = 3.20399e-09, Final residual = 3.02549e-10, No Iterations 1
ExecutionTime = 2 s



Wall heat fluxes [W]
movingWall 0 -3.05924e-14 0 -3.05924e-14
left 0.594111 2.77488e-16 0 0.594111
right -0.594111 -2.81248e-15 0 -0.594111
bottom 0 0 0 0
frontAndBack 0 0 0 0
sum 1.77978e-07 -3.31274e-14 0 1.77978e-07


Wall heat fluxes [W]
topAndBottom 0 0 0 0
left 0.594111 0 0 0.594111
right -0.594111 0 0 -0.594111
frontAndBack 0 0 0 0
sum 1.0582e-08 0 0 1.0582e-08

Time = 987

DILUPBiCG:  Solving for Ux, Initial residual = 0.0159551, Final residual = 4.41771e-06, No Iterations 2
DILUPBiCG:  Solving for Uy, Initial residual = 0.0339997, Final residual = 1.33324e-05, No Iterations 2
DICPCG:  Solving for p_rgh, Initial residual = 7.77218e-08, Final residual = 3.9517e-10, No Iterations 6
time step continuity errors : sum local = 1.03589e-09, global = -6.92449e-16, cumulative = -6.95149e-13
DILUPBiCG:  Solving for epsilon, Initial residual = 4.92422e-08, Final residual = 1.84056e-10, No Iterations 2
DILUPBiCG:  Solving for k, Initial residual = 9.19299e-08, Final residual = 2.46609e-11, No Iterations 3
BiCG:  Solving for T+T, Initial residual = 3.17259e-09, Final residual = 2.23119e-10, No Iterations 2
ExecutionTime = 2 s



Wall heat fluxes [W]
movingWall 0 -3.05924e-14 0 -3.05924e-14
left 0.594111 -2.77488e-16 0 0.594111
right -0.594111 -3.28473e-15 0 -0.594111
bottom 0 0 0 0
frontAndBack 0 0 0 0
sum 1.79617e-07 -3.41546e-14 0 1.79617e-07


Wall heat fluxes [W]
topAndBottom 0 0 0 0
left 0.594112 0 0 0.594112
right -0.594111 0 0 -0.594111
frontAndBack 0 0 0 0
sum 1.59055e-07 0 0 1.59055e-07

Time = 988

DILUPBiCG:  Solving for Ux, Initial residual = 0.0159551, Final residual = 4.41771e-06, No Iterations 2
DILUPBiCG:  Solving for Uy, Initial residual = 0.0339997, Final residual = 1.33324e-05, No Iterations 2
DICPCG:  Solving for p_rgh, Initial residual = 7.7579e-08, Final residual = 4.38993e-10, No Iterations 6
time step continuity errors : sum local = 1.30228e-09, global = -7.03037e-16, cumulative = -6.95852e-13
DILUPBiCG:  Solving for epsilon, Initial residual = 4.8963e-08, Final residual = 1.86524e-10, No Iterations 2
DILUPBiCG:  Solving for k, Initial residual = 9.10358e-08, Final residual = 2.4801e-11, No Iterations 3
BiCG:  Solving for T+T, Initial residual = 3.125e-09, Final residual = 2.28222e-10, No Iterations 2
ExecutionTime = 2 s



Wall heat fluxes [W]
movingWall 0 -3.05924e-14 0 -3.05924e-14
left 0.594111 -2.2199e-15 0 0.594111
right -0.594111 -9.38878e-16 0 -0.594111
bottom 0 0 0 0
frontAndBack 0 0 0 0
sum 1.80949e-07 -3.37512e-14 0 1.80949e-07


Wall heat fluxes [W]
topAndBottom 0 0 0 0
left 0.594112 0 0 0.594112
right -0.594111 0 0 -0.594111
frontAndBack 0 0 0 0
sum 1.14204e-07 0 0 1.14204e-07

Time = 989

DILUPBiCG:  Solving for Ux, Initial residual = 0.0159551, Final residual = 4.41771e-06, No Iterations 2
DILUPBiCG:  Solving for Uy, Initial residual = 0.0339997, Final residual = 1.33324e-05, No Iterations 2
DICPCG:  Solving for p_rgh, Initial residual = 7.75992e-08, Final residual = 5.20716e-10, No Iterations 6
time step continuity errors : sum local = 1.76024e-09, global = -7.53859e-16, cumulative = -6.96606e-13
DILUPBiCG:  Solving for epsilon, Initial residual = 4.8509e-08, Final residual = 1.88184e-10, No Iterations 2
DILUPBiCG:  Solving for k, Initial residual = 9.00137e-08, Final residual = 2.4865e-11, No Iterations 3
BiCG:  Solving for T+T, Initial residual = 3.07301e-09, Final residual = 2.41991e-10, No Iterations 2
ExecutionTime = 2.01 s



Wall heat fluxes [W]
movingWall 0 -3.05924e-14 0 -3.05924e-14
left 0.594111 1.66493e-15 0 0.594111
right -0.594111 -8.91265e-15 0 -0.594111
bottom 0 0 0 0
frontAndBack 0 0 0 0
sum 1.82562e-07 -3.78401e-14 0 1.82562e-07


Wall heat fluxes [W]
topAndBottom 0 0 0 0
left 0.594112 0 0 0.594112
right -0.594111 0 0 -0.594111
frontAndBack 0 0 0 0
sum 1.22637e-07 0 0 1.22637e-07

Time = 990

DILUPBiCG:  Solving for Ux, Initial residual = 0.0159551, Final residual = 4.41771e-06, No Iterations 2
DILUPBiCG:  Solving for Uy, Initial residual = 0.0339997, Final residual = 1.33324e-05, No Iterations 2
DICPCG:  Solving for p_rgh, Initial residual = 7.74751e-08, Final residual = 6.48478e-10, No Iterations 6
time step continuity errors : sum local = 2.35494e-09, global = -5.97158e-16, cumulative = -6.97203e-13
DILUPBiCG:  Solving for epsilon, Initial residual = 4.78811e-08, Final residual = 1.89116e-10, No Iterations 2
DILUPBiCG:  Solving for k, Initial residual = 8.87458e-08, Final residual = 2.48307e-11, No Iterations 3
BiCG:  Solving for T+T, Initial residual = 3.00929e-09, Final residual = 2.50984e-10, No Iterations 2
ExecutionTime = 2.01 s



Wall heat fluxes [W]
movingWall 0 -3.05924e-14 0 -3.05924e-14
left 0.594111 2.77488e-15 0 0.594111
right -0.594111 3.75251e-15 0 -0.594111
bottom 0 0 0 0
frontAndBack 0 0 0 0
sum 1.84283e-07 -2.4065e-14 0 1.84283e-07


Wall heat fluxes [W]
topAndBottom 0 0 0 0
left 0.594112 0 0 0.594112
right -0.594111 0 0 -0.594111
frontAndBack 0 0 0 0
sum 1.22523e-07 0 0 1.22523e-07

Time = 991

DILUPBiCG:  Solving for Ux, Initial residual = 0.0159551, Final residual = 4.41771e-06, No Iterations 2
DILUPBiCG:  Solving for Uy, Initial residual = 0.0339997, Final residual = 1.33324e-05, No Iterations 2
DICPCG:  Solving for p_rgh, Initial residual = 7.73288e-08, Final residual = 5.0461e-10, No Iterations 12
time step continuity errors : sum local = 1.28503e-09, global = -6.94567e-16, cumulative = -6.97898e-13
DILUPBiCG:  Solving for epsilon, Initial residual = 4.71367e-08, Final residual = 1.89417e-10, No Iterations 2
DILUPBiCG:  Solving for k, Initial residual = 8.73393e-08, Final residual = 2.46984e-11, No Iterations 3
BiCG:  Solving for T+T, Initial residual = 2.93726e-09, Final residual = 2.59087e-10, No Iterations 2
ExecutionTime = 2.01 s



Wall heat fluxes [W]
movingWall 0 -3.05924e-14 0 -3.05924e-14
left 0.594111 1.66493e-15 0 0.594111
right -0.594111 -4.69256e-16 0 -0.594111
bottom 0 0 0 0
frontAndBack 0 0 0 0
sum 1.8603e-07 -2.93967e-14 0 1.8603e-07


Wall heat fluxes [W]
topAndBottom 0 0 0 0
left 0.594111 0 0 0.594111
right -0.594111 0 0 -0.594111
frontAndBack 0 0 0 0
sum 1.24915e-07 0 0 1.24915e-07

Time = 992

DILUPBiCG:  Solving for Ux, Initial residual = 0.0159551, Final residual = 4.41771e-06, No Iterations 2
DILUPBiCG:  Solving for Uy, Initial residual = 0.0339997, Final residual = 1.33324e-05, No Iterations 2
DICPCG:  Solving for p_rgh, Initial residual = 7.69413e-08, Final residual = 4.83324e-10, No Iterations 6
time step continuity errors : sum local = 1.28837e-09, global = -8.87267e-16, cumulative = -6.98785e-13
DILUPBiCG:  Solving for epsilon, Initial residual = 4.63233e-08, Final residual = 1.88944e-10, No Iterations 2
DILUPBiCG:  Solving for k, Initial residual = 8.56851e-08, Final residual = 2.44515e-11, No Iterations 3
BiCG:  Solving for T+T, Initial residual = 2.85601e-09, Final residual = 2.65342e-10, No Iterations 2
ExecutionTime = 2.01 s



Wall heat fluxes [W]
movingWall 0 -3.05924e-14 0 -3.05924e-14
left 0.594111 -5.27227e-15 0 0.594111
right -0.594111 -4.689e-16 0 -0.594111
bottom 0 0 0 0
frontAndBack 0 0 0 0
sum 1.87839e-07 -3.63336e-14 0 1.87839e-07


Wall heat fluxes [W]
topAndBottom 0 0 0 0
left 0.594111 0 0 0.594111
right -0.594111 0 0 -0.594111
frontAndBack 0 0 0 0
sum 1.26586e-07 0 0 1.26586e-07

Time = 993

DILUPBiCG:  Solving for Ux, Initial residual = 0.0159551, Final residual = 4.41771e-06, No Iterations 2
DILUPBiCG:  Solving for Uy, Initial residual = 0.0339997, Final residual = 1.33324e-05, No Iterations 2
DICPCG:  Solving for p_rgh, Initial residual = 7.61263e-08, Final residual = 4.91147e-10, No Iterations 6
time step continuity errors : sum local = 1.2802e-09, global = -7.26331e-16, cumulative = -6.99511e-13
DILUPBiCG:  Solving for epsilon, Initial residual = 4.53696e-08, Final residual = 1.87851e-10, No Iterations 2
DILUPBiCG:  Solving for k, Initial residual = 8.37907e-08, Final residual = 2.42147e-11, No Iterations 3
BiCG:  Solving for T+T, Initial residual = 2.77439e-09, Final residual = 2.70079e-10, No Iterations 2
ExecutionTime = 2.01 s



Wall heat fluxes [W]
movingWall 0 -3.05924e-14 0 -3.05924e-14
left 0.594111 4.16232e-15 0 0.594111
right -0.594111 -2.34496e-15 0 -0.594111
bottom 0 0 0 0
frontAndBack 0 0 0 0
sum 1.89665e-07 -2.87751e-14 0 1.89665e-07


Wall heat fluxes [W]
topAndBottom 0 0 0 0
left 0.594111 0 0 0.594111
right -0.594111 0 0 -0.594111
frontAndBack 0 0 0 0
sum 1.27933e-07 0 0 1.27933e-07

Time = 994

DILUPBiCG:  Solving for Ux, Initial residual = 0.0159551, Final residual = 4.41771e-06, No Iterations 2
DILUPBiCG:  Solving for Uy, Initial residual = 0.0339997, Final residual = 1.33324e-05, No Iterations 2
DICPCG:  Solving for p_rgh, Initial residual = 7.48227e-08, Final residual = 4.97582e-10, No Iterations 6
time step continuity errors : sum local = 1.42259e-09, global = -6.64921e-16, cumulative = -7.00176e-13
DILUPBiCG:  Solving for epsilon, Initial residual = 4.42755e-08, Final residual = 1.86659e-10, No Iterations 2
DILUPBiCG:  Solving for k, Initial residual = 8.18632e-08, Final residual = 2.39444e-11, No Iterations 3
BiCG:  Solving for T+T, Initial residual = 2.68754e-09, Final residual = 1.7284e-10, No Iterations 3
ExecutionTime = 2.02 s



Wall heat fluxes [W]
movingWall 0 -3.05924e-14 0 -3.05924e-14
left 0.594111 -1.38744e-15 0 0.594111
right -0.594111 2.81371e-15 0 -0.594111
bottom 0 0 0 0
frontAndBack 0 0 0 0
sum 1.9139e-07 -2.91661e-14 0 1.9139e-07


Wall heat fluxes [W]
topAndBottom 0 0 0 0
left 0.594112 0 0 0.594112
right -0.594111 0 0 -0.594111
frontAndBack 0 0 0 0
sum 9.81728e-07 0 0 9.81728e-07

Time = 995

DILUPBiCG:  Solving for Ux, Initial residual = 0.0159551, Final residual = 4.41771e-06, No Iterations 2
DILUPBiCG:  Solving for Uy, Initial residual = 0.0339997, Final residual = 1.33324e-05, No Iterations 2
DICPCG:  Solving for p_rgh, Initial residual = 7.20547e-08, Final residual = 5.30715e-10, No Iterations 6
time step continuity errors : sum local = 1.70125e-09, global = -6.59627e-16, cumulative = -7.00836e-13
DILUPBiCG:  Solving for epsilon, Initial residual = 4.3044e-08, Final residual = 1.84938e-10, No Iterations 2
DILUPBiCG:  Solving for k, Initial residual = 8.02451e-08, Final residual = 2.36139e-11, No Iterations 3
BiCG:  Solving for T+T, Initial residual = 2.5424e-09, Final residual = 1.83589e-10, No Iterations 2
ExecutionTime = 2.02 s



Wall heat fluxes [W]
movingWall 0 -3.05924e-14 0 -3.05924e-14
left 0.594111 2.77488e-16 0 0.594111
right -0.594111 3.28187e-15 0 -0.594111
bottom 0 0 0 0
frontAndBack 0 0 0 0
sum 1.90787e-07 -2.70331e-14 0 1.90787e-07


Wall heat fluxes [W]
topAndBottom 0 0 0 0
left 0.594111 0 0 0.594111
right -0.594111 0 0 -0.594111
frontAndBack 0 0 0 0
sum 1.5829e-08 0 0 1.5829e-08

Time = 996

DILUPBiCG:  Solving for Ux, Initial residual = 0.0159551, Final residual = 4.41771e-06, No Iterations 2
DILUPBiCG:  Solving for Uy, Initial residual = 0.0339997, Final residual = 1.33324e-05, No Iterations 2
DICPCG:  Solving for p_rgh, Initial residual = 7.14469e-08, Final residual = 6.11662e-10, No Iterations 6
time step continuity errors : sum local = 2.12304e-09, global = -6.32098e-16, cumulative = -7.01468e-13
DILUPBiCG:  Solving for epsilon, Initial residual = 4.22538e-08, Final residual = 1.82559e-10, No Iterations 2
DILUPBiCG:  Solving for k, Initial residual = 7.8725e-08, Final residual = 2.32271e-11, No Iterations 3
BiCG:  Solving for T+T, Initial residual = 2.46467e-09, Final residual = 2.32052e-10, No Iterations 2
ExecutionTime = 2.02 s



Wall heat fluxes [W]
movingWall 0 -3.05924e-14 0 -3.05924e-14
left 0.594111 -2.77488e-16 0 0.594111
right -0.594111 5.63044e-15 0 -0.594111
bottom 0 0 0 0
frontAndBack 0 0 0 0
sum 1.92963e-07 -2.52395e-14 0 1.92963e-07


Wall heat fluxes [W]
topAndBottom 0 0 0 0
left 0.594111 0 0 0.594111
right -0.594111 0 0 -0.594111
frontAndBack 0 0 0 0
sum 1.35737e-07 0 0 1.35737e-07

Time = 997

DILUPBiCG:  Solving for Ux, Initial residual = 0.0159551, Final residual = 4.41771e-06, No Iterations 2
DILUPBiCG:  Solving for Uy, Initial residual = 0.0339997, Final residual = 1.33324e-05, No Iterations 2
DICPCG:  Solving for p_rgh, Initial residual = 7.00024e-08, Final residual = 6.85809e-10, No Iterations 6
time step continuity errors : sum local = 2.48954e-09, global = -6.28922e-16, cumulative = -7.02097e-13
DILUPBiCG:  Solving for epsilon, Initial residual = 4.13606e-08, Final residual = 1.79418e-10, No Iterations 2
DILUPBiCG:  Solving for k, Initial residual = 7.70541e-08, Final residual = 2.2738e-11, No Iterations 3
BiCG:  Solving for T+T, Initial residual = 2.35981e-09, Final residual = 2.29038e-10, No Iterations 2
ExecutionTime = 2.02 s



Wall heat fluxes [W]
movingWall 0 -3.05924e-14 0 -3.05924e-14
left 0.594111 1.94242e-15 0 0.594111
right -0.594111 2.81408e-15 0 -0.594111
bottom 0 0 0 0
frontAndBack 0 0 0 0
sum 1.94697e-07 -2.58359e-14 0 1.94697e-07


Wall heat fluxes [W]
topAndBottom 0 0 0 0
left 0.594111 0 0 0.594111
right -0.594111 0 0 -0.594111
frontAndBack 0 0 0 0
sum 9.74081e-08 0 0 9.74081e-08

Time = 998

DILUPBiCG:  Solving for Ux, Initial residual = 0.0159551, Final residual = 4.41771e-06, No Iterations 2
DILUPBiCG:  Solving for Uy, Initial residual = 0.0339997, Final residual = 1.33324e-05, No Iterations 2
DICPCG:  Solving for p_rgh, Initial residual = 6.82406e-08, Final residual = 4.79699e-10, No Iterations 12
time step continuity errors : sum local = 1.22661e-09, global = -7.04096e-16, cumulative = -7.02801e-13
DILUPBiCG:  Solving for epsilon, Initial residual = 4.04909e-08, Final residual = 1.75811e-10, No Iterations 2
DILUPBiCG:  Solving for k, Initial residual = 7.52316e-08, Final residual = 2.26915e-11, No Iterations 3
BiCG:  Solving for T+T, Initial residual = 2.25595e-09, Final residual = 1.43656e-10, No Iterations 3
ExecutionTime = 2.02 s



Wall heat fluxes [W]
movingWall 0 -3.05924e-14 0 -3.05924e-14
left 0.594111 -5.54976e-16 0 0.594111
right -0.594111 9.372e-16 0 -0.594111
bottom 0 0 0 0
frontAndBack 0 0 0 0
sum 1.9631e-07 -3.02102e-14 0 1.96309e-07


Wall heat fluxes [W]
topAndBottom 0 0 0 0
left 0.594112 0 0 0.594112
right -0.594111 0 0 -0.594111
frontAndBack 0 0 0 0
sum 8.49833e-07 0 0 8.49833e-07

Time = 999

DILUPBiCG:  Solving for Ux, Initial residual = 0.0159551, Final residual = 4.41771e-06, No Iterations 2
DILUPBiCG:  Solving for Uy, Initial residual = 0.0339997, Final residual = 1.33324e-05, No Iterations 2
DICPCG:  Solving for p_rgh, Initial residual = 6.54018e-08, Final residual = 4.98914e-10, No Iterations 6
time step continuity errors : sum local = 1.31302e-09, global = -8.9362e-16, cumulative = -7.03694e-13
DILUPBiCG:  Solving for epsilon, Initial residual = 3.95457e-08, Final residual = 1.71807e-10, No Iterations 2
DILUPBiCG:  Solving for k, Initial residual = 7.34634e-08, Final residual = 6.57053e-10, No Iterations 2
BiCG:  Solving for T+T, Initial residual = 2.10815e-09, Final residual = 1.59699e-10, No Iterations 2
ExecutionTime = 2.03 s



Wall heat fluxes [W]
movingWall 0 -3.05924e-14 0 -3.05924e-14
left 0.594111 -3.60734e-15 0 0.594111
right -0.594111 -2.81525e-15 0 -0.594111
bottom 0 0 0 0
frontAndBack 0 0 0 0
sum 1.95895e-07 -3.7015e-14 0 1.95895e-07


Wall heat fluxes [W]
topAndBottom 0 0 0 0
left 0.594111 0 0 0.594111
right -0.594111 0 0 -0.594111
frontAndBack 0 0 0 0
sum 9.20805e-09 0 0 9.20805e-09

Time = 1000

DILUPBiCG:  Solving for Ux, Initial residual = 0.0159551, Final residual = 4.4177e-06, No Iterations 2
DILUPBiCG:  Solving for Uy, Initial residual = 0.0339997, Final residual = 1.33324e-05, No Iterations 2
DICPCG:  Solving for p_rgh, Initial residual = 6.41111e-08, Final residual = 5.17726e-10, No Iterations 6
time step continuity errors : sum local = 1.47047e-09, global = -7.9727e-16, cumulative = -7.04492e-13
DILUPBiCG:  Solving for epsilon, Initial residual = 3.87225e-08, Final residual = 1.67194e-10, No Iterations 2
DILUPBiCG:  Solving for k, Initial residual = 7.15386e-08, Final residual = 5.61733e-10, No Iterations 2
BiCG:  Solving for T+T, Initial residual = 2.04492e-09, Final residual = 1.97055e-10, No Iterations 2
ExecutionTime = 2.03 s



Wall heat fluxes [W]
movingWall 0 -3.05924e-14 0 -3.05924e-14
left 0.594111 -1.66493e-15 0 0.594111
right -0.594111 -4.69513e-16 0 -0.594111
bottom 0 0 0 0
frontAndBack 0 0 0 0
sum 1.97711e-07 -3.27269e-14 0 1.97711e-07


Wall heat fluxes [W]
topAndBottom 0 0 0 0
left 0.594111 0 0 0.594111
right -0.594111 0 0 -0.594111
frontAndBack 0 0 0 0
sum 1.08609e-07 0 0 1.08609e-07

End

