/*---------------------------------------------------------------------------*\
| =========                 |                                                 |
| \\      /  F ield         | OpenFOAM Extend Project: Open source CFD        |
|  \\    /   O peration     | Version:  1.6-ext                               |
|   \\  /    A nd           | Web:      www.extend-project.de                 |
|    \\/     M anipulation  |                                                 |
\*---------------------------------------------------------------------------*/
Build  : 1.6-ext-daa8fb2a98e6
Exec   : chipAirCoolingSimpleFoam
Date   : Nov 29 2011
Time   : 22:11:54
Host   : ubuntu
PID    : 610
Case   : /home/user/ChipAirCoolingClient/run/tutorial1_twisted
nProcs : 1
SigFpe : Enabling floating point exception trapping (FOAM_SIGFPE).

// * * * * * * * * * * * * * * * * * * * * * * * * * * * * * * * * * * * * * //
Create time

Create mesh for time = 0


Reading g
Reading transportProperties

Calculating field g.h

Reading field p_rgh

Reading field U

Reading field T

Reading/calculating face flux field phi

Selecting incompressible transport model Newtonian
Selecting RAS turbulence model kEpsilon
kEpsilonCoeffs
{
    Cmu             0.09;
    C1              1.44;
    C2              1.92;
    alphaEps        0.76923;
    sigmaEps        1.3;
}

Reading field kappaEff

Creating radiation model

Selecting radiationModel none
Reading field Tsolid

Reading solid thermal properties
Selecting thermal model multiMaterialZones
Selecting thermal model constant
Selecting thermal model constant
Selecting thermal gap model constant
Reading solid diffusivity k


Starting time loop

--> FOAM Warning : 
    From function dlLibraryTable::open(const dictionary& dict, const word& libsEntry, const TablePtr tablePtr)
    in file lnInclude/dlLibraryTableTemplates.C at line 68
    library "libairbusMaterialModels.so" did not introduce any new entries

Time = 1

DILUPBiCG:  Solving for Ux, Initial residual = 1, Final residual = 0.000145886, No Iterations 2
DILUPBiCG:  Solving for Uy, Initial residual = 1, Final residual = 0.000167378, No Iterations 2
DICPCG:  Solving for p_rgh, Initial residual = 1, Final residual = 0.00608078, No Iterations 6
time step continuity errors : sum local = 0.00372782, global = -7.08795e-16, cumulative = -7.08795e-16
DILUPBiCG:  Solving for epsilon, Initial residual = 0.0780755, Final residual = 0.000143246, No Iterations 2
DILUPBiCG:  Solving for k, Initial residual = 1, Final residual = 0.00250614, No Iterations 2
Before T+T solve
BiCG:  Solving for T+T, Initial residual = 0.30681, Final residual = 0.0279689, No Iterations 3
Tres = -0.546709
TsRes = -17.8728
ExecutionTime = 0.02 s



Wall heat fluxes [W]
movingWall 0 -2.44354e-14 0 -2.44354e-14
left 2.46772e-08 0 0 2.46772e-08
right -0.545733 0 0 -0.545733
bottom 0 0 0 0
frontAndBack 0 0 0 0
sum -0.545733 -2.44354e-14 0 -0.545733


Wall heat fluxes [W]
topAndBottom 0 0 0 0
left -1.17172 0 0 -1.17172
right -18.4195 0 0 -18.4195
frontAndBack 0 0 0 0
sum -19.5912 0 0 -19.5912

Time = 2

DILUPBiCG:  Solving for Ux, Initial residual = 0.873962, Final residual = 9.09762e-05, No Iterations 2
DILUPBiCG:  Solving for Uy, Initial residual = 0.826599, Final residual = 0.007917, No Iterations 1
DICPCG:  Solving for p_rgh, Initial residual = 0.754018, Final residual = 0.00379875, No Iterations 12
time step continuity errors : sum local = 0.0137101, global = -5.23043e-16, cumulative = -1.23184e-15
DILUPBiCG:  Solving for epsilon, Initial residual = 0.0222347, Final residual = 3.41304e-05, No Iterations 2
DILUPBiCG:  Solving for k, Initial residual = 0.635896, Final residual = 0.00106795, No Iterations 2
Before T+T solve
BiCG:  Solving for T+T, Initial residual = 0.0305995, Final residual = 0.00161733, No Iterations 5
Tres = -0.641208
TsRes = -6.45139
ExecutionTime = 0.02 s



Wall heat fluxes [W]
movingWall 0 -2.43049e-14 0 -2.43049e-14
left 4.41362e-07 3.30791e-23 0 4.41362e-07
right -0.519229 9.07006e-15 0 -0.519229
bottom 0 0 0 0
frontAndBack 0 0 0 0
sum -0.519229 -1.52348e-14 0 -0.519229


Wall heat fluxes [W]
topAndBottom 0 0 0 0
left 41.1634 0 0 41.1634
right -7.0926 0 0 -7.0926
frontAndBack 0 0 0 0
sum 34.0708 0 0 34.0708

Time = 3

DILUPBiCG:  Solving for Ux, Initial residual = 0.247824, Final residual = 3.53584e-05, No Iterations 2
DILUPBiCG:  Solving for Uy, Initial residual = 0.231496, Final residual = 0.00205587, No Iterations 1
DICPCG:  Solving for p_rgh, Initial residual = 0.457579, Final residual = 0.00332797, No Iterations 6
time step continuity errors : sum local = 0.00764448, global = -6.81729e-16, cumulative = -1.91357e-15
DILUPBiCG:  Solving for epsilon, Initial residual = 0.0531788, Final residual = 3.74508e-05, No Iterations 2
DILUPBiCG:  Solving for k, Initial residual = 0.218365, Final residual = 0.000375807, No Iterations 2
Before T+T solve
BiCG:  Solving for T+T, Initial residual = 0.00823324, Final residual = 0.000654525, No Iterations 5
Tres = -0.705275
TsRes = -3.90698
ExecutionTime = 0.03 s



Wall heat fluxes [W]
movingWall 0 -2.43323e-14 0 -2.43323e-14
left 8.00301e-06 1.80612e-20 0 8.00301e-06
right -0.6205 1.59329e-15 0 -0.6205
bottom 0 0 0 0
frontAndBack 0 0 0 0
sum -0.620492 -2.2739e-14 0 -0.620492


Wall heat fluxes [W]
topAndBottom 0 0 0 0
left 28.9403 0 0 28.9403
right -4.61226 0 0 -4.61226
frontAndBack 0 0 0 0
sum 24.328 0 0 24.328

Time = 4

DILUPBiCG:  Solving for Ux, Initial residual = 0.176836, Final residual = 0.00175185, No Iterations 1
DILUPBiCG:  Solving for Uy, Initial residual = 0.198804, Final residual = 1.44294e-05, No Iterations 2
DICPCG:  Solving for p_rgh, Initial residual = 0.219002, Final residual = 0.0014733, No Iterations 9
time step continuity errors : sum local = 0.0031156, global = -5.05573e-16, cumulative = -2.41914e-15
DILUPBiCG:  Solving for epsilon, Initial residual = 0.0628615, Final residual = 6.92473e-05, No Iterations 2
DILUPBiCG:  Solving for k, Initial residual = 0.128395, Final residual = 0.000236271, No Iterations 2
Before T+T solve
BiCG:  Solving for T+T, Initial residual = 0.00518198, Final residual = 0.000176813, No Iterations 5
Tres = -0.760807
TsRes = -2.77101
ExecutionTime = 0.03 s



Wall heat fluxes [W]
movingWall 0 -2.435e-14 0 -2.435e-14
left 3.14492e-05 1.34235e-19 0 3.14492e-05
right -0.689633 9.89752e-15 0 -0.689633
bottom 0 0 0 0
frontAndBack 0 0 0 0
sum -0.689601 -1.44523e-14 0 -0.689601


Wall heat fluxes [W]
topAndBottom 0 0 0 0
left 24.4582 0 0 24.4582
right -3.53184 0 0 -3.53184
frontAndBack 0 0 0 0
sum 20.9264 0 0 20.9264

Time = 5

DILUPBiCG:  Solving for Ux, Initial residual = 0.0938055, Final residual = 0.000892765, No Iterations 1
DILUPBiCG:  Solving for Uy, Initial residual = 0.101086, Final residual = 0.000972196, No Iterations 1
DICPCG:  Solving for p_rgh, Initial residual = 0.230341, Final residual = 0.00181512, No Iterations 6
time step continuity errors : sum local = 0.00227793, global = -6.57774e-16, cumulative = -3.07691e-15
DILUPBiCG:  Solving for epsilon, Initial residual = 0.0513844, Final residual = 8.93644e-05, No Iterations 2
DILUPBiCG:  Solving for k, Initial residual = 0.0921069, Final residual = 0.000156907, No Iterations 2
Before T+T solve
BiCG:  Solving for T+T, Initial residual = 0.00389477, Final residual = 0.000378976, No Iterations 3
Tres = -0.801794
TsRes = -2.06008
ExecutionTime = 0.03 s



Wall heat fluxes [W]
movingWall 0 -2.43614e-14 0 -2.43614e-14
left 0.000112074 4.09123e-19 0 0.000112074
right -0.749322 2.97e-15 0 -0.749322
bottom 0 0 0 0
frontAndBack 0 0 0 0
sum -0.74921 -2.13909e-14 0 -0.74921


Wall heat fluxes [W]
topAndBottom 0 0 0 0
left 18.3018 0 0 18.3018
right -2.86199 0 0 -2.86199
frontAndBack 0 0 0 0
sum 15.4398 0 0 15.4398

Time = 6

DILUPBiCG:  Solving for Ux, Initial residual = 0.0695311, Final residual = 0.000586374, No Iterations 1
DILUPBiCG:  Solving for Uy, Initial residual = 0.0728475, Final residual = 0.000592567, No Iterations 1
DICPCG:  Solving for p_rgh, Initial residual = 0.23145, Final residual = 0.00103115, No Iterations 10
time step continuity errors : sum local = 0.000997963, global = -7.8139e-16, cumulative = -3.8583e-15
DILUPBiCG:  Solving for epsilon, Initial residual = 0.0371729, Final residual = 7.78368e-05, No Iterations 2
DILUPBiCG:  Solving for k, Initial residual = 0.075628, Final residual = 0.000164182, No Iterations 2
Before T+T solve
BiCG:  Solving for T+T, Initial residual = 0.00319266, Final residual = 0.000226835, No Iterations 3
Tres = -0.835332
TsRes = -1.6169
ExecutionTime = 0.03 s



Wall heat fluxes [W]
movingWall 0 -2.43675e-14 0 -2.43675e-14
left 0.000308317 1.18556e-19 0 0.000308317
right -0.793897 -1.73179e-15 0 -0.793897
bottom 0 0 0 0
frontAndBack 0 0 0 0
sum -0.793589 -2.60992e-14 0 -0.793589


Wall heat fluxes [W]
topAndBottom 0 0 0 0
left 14.7232 0 0 14.7232
right -2.45254 0 0 -2.45254
frontAndBack 0 0 0 0
sum 12.2707 0 0 12.2707

Time = 7

DILUPBiCG:  Solving for Ux, Initial residual = 0.0564725, Final residual = 0.000487804, No Iterations 1
DILUPBiCG:  Solving for Uy, Initial residual = 0.0662044, Final residual = 0.000558738, No Iterations 1
DICPCG:  Solving for p_rgh, Initial residual = 0.20968, Final residual = 0.00193624, No Iterations 10
time step continuity errors : sum local = 0.00173969, global = -7.77285e-16, cumulative = -4.63559e-15
DILUPBiCG:  Solving for epsilon, Initial residual = 0.0337444, Final residual = 6.42376e-05, No Iterations 2
DILUPBiCG:  Solving for k, Initial residual = 0.0673983, Final residual = 0.0001747, No Iterations 2
Before T+T solve
BiCG:  Solving for T+T, Initial residual = 0.00278327, Final residual = 0.000226049, No Iterations 3
Tres = -0.8602
TsRes = -1.21946
ExecutionTime = 0.04 s



Wall heat fluxes [W]
movingWall 0 -2.43693e-14 0 -2.43693e-14
left 0.000688749 -3.99702e-18 0 0.000688749
right -0.830393 -5.27798e-15 0 -0.830393
bottom 0 0 0 0
frontAndBack 0 0 0 0
sum -0.829704 -2.96513e-14 0 -0.829704


Wall heat fluxes [W]
topAndBottom 0 0 0 0
left 11.0055 0 0 11.0055
right -2.08035 0 0 -2.08035
frontAndBack 0 0 0 0
sum 8.92518 0 0 8.92518

Time = 8

DILUPBiCG:  Solving for Ux, Initial residual = 0.0515847, Final residual = 0.000463922, No Iterations 1
DILUPBiCG:  Solving for Uy, Initial residual = 0.0615542, Final residual = 0.000524285, No Iterations 1
DICPCG:  Solving for p_rgh, Initial residual = 0.180853, Final residual = 0.000968381, No Iterations 10
time step continuity errors : sum local = 0.000883116, global = -6.54482e-16, cumulative = -5.29007e-15
DILUPBiCG:  Solving for epsilon, Initial residual = 0.0316029, Final residual = 6.06825e-05, No Iterations 2
DILUPBiCG:  Solving for k, Initial residual = 0.0622353, Final residual = 0.000164932, No Iterations 2
Before T+T solve
BiCG:  Solving for T+T, Initial residual = 0.00242206, Final residual = 0.000187844, No Iterations 3
Tres = -0.880902
TsRes = -0.954677
ExecutionTime = 0.04 s



Wall heat fluxes [W]
movingWall 0 -2.43681e-14 0 -2.43681e-14
left 0.00135701 -4.87772e-18 0 0.00135701
right -0.857783 5.33863e-15 0 -0.857783
bottom 0 0 0 0
frontAndBack 0 0 0 0
sum -0.856426 -1.90344e-14 0 -0.856426


Wall heat fluxes [W]
topAndBottom 0 0 0 0
left 9.02215 0 0 9.02215
right -1.83694 0 0 -1.83694
frontAndBack 0 0 0 0
sum 7.18522 0 0 7.18522

Time = 9

DILUPBiCG:  Solving for Ux, Initial residual = 0.0464184, Final residual = 0.000440676, No Iterations 1
DILUPBiCG:  Solving for Uy, Initial residual = 0.0561825, Final residual = 0.000463444, No Iterations 1
DICPCG:  Solving for p_rgh, Initial residual = 0.160905, Final residual = 0.00160111, No Iterations 8
time step continuity errors : sum local = 0.00191704, global = -8.63312e-16, cumulative = -6.15338e-15
DILUPBiCG:  Solving for epsilon, Initial residual = 0.0297605, Final residual = 5.92054e-05, No Iterations 2
DILUPBiCG:  Solving for k, Initial residual = 0.0603071, Final residual = 0.000163724, No Iterations 2
Before T+T solve
BiCG:  Solving for T+T, Initial residual = 0.00218913, Final residual = 0.000173568, No Iterations 3
Tres = -0.896196
TsRes = -0.724695
ExecutionTime = 0.04 s



Wall heat fluxes [W]
movingWall 0 -2.43644e-14 0 -2.43644e-14
left 0.00242032 -1.28718e-17 0 0.00242032
right -0.880789 -5.38887e-15 0 -0.880789
bottom 0 0 0 0
frontAndBack 0 0 0 0
sum -0.878368 -2.97661e-14 0 -0.878368


Wall heat fluxes [W]
topAndBottom 0 0 0 0
left 6.82725 0 0 6.82725
right -1.62331 0 0 -1.62331
frontAndBack 0 0 0 0
sum 5.20394 0 0 5.20394

Time = 10

DILUPBiCG:  Solving for Ux, Initial residual = 0.0404611, Final residual = 8.40891e-06, No Iterations 2
DILUPBiCG:  Solving for Uy, Initial residual = 0.0513426, Final residual = 0.000410605, No Iterations 1
DICPCG:  Solving for p_rgh, Initial residual = 0.143063, Final residual = 0.00109196, No Iterations 11
time step continuity errors : sum local = 0.0010939, global = -8.33533e-16, cumulative = -6.98692e-15
DILUPBiCG:  Solving for epsilon, Initial residual = 0.0285267, Final residual = 6.12309e-05, No Iterations 2
DILUPBiCG:  Solving for k, Initial residual = 0.0599106, Final residual = 0.000164985, No Iterations 2
Before T+T solve
BiCG:  Solving for T+T, Initial residual = 0.00202608, Final residual = 0.000164126, No Iterations 3
Tres = -0.908872
TsRes = -0.566019
ExecutionTime = 0.04 s



Wall heat fluxes [W]
movingWall 0 -2.43588e-14 0 -2.43588e-14
left 0.00399156 2.60145e-17 0 0.00399156
right -0.898419 -8.13269e-15 0 -0.898419
bottom 0 0 0 0
frontAndBack 0 0 0 0
sum -0.894427 -3.24655e-14 0 -0.894427


Wall heat fluxes [W]
topAndBottom 0 0 0 0
left 5.71601 0 0 5.71601
right -1.47888 0 0 -1.47888
frontAndBack 0 0 0 0
sum 4.23713 0 0 4.23713

Time = 11

DILUPBiCG:  Solving for Ux, Initial residual = 0.0363022, Final residual = 4.44703e-06, No Iterations 2
DILUPBiCG:  Solving for Uy, Initial residual = 0.0482346, Final residual = 0.000453435, No Iterations 1
DICPCG:  Solving for p_rgh, Initial residual = 0.121901, Final residual = 0.00115106, No Iterations 6
time step continuity errors : sum local = 0.0014413, global = -5.14821e-16, cumulative = -7.50174e-15
DILUPBiCG:  Solving for epsilon, Initial residual = 0.0265806, Final residual = 6.34656e-05, No Iterations 2
DILUPBiCG:  Solving for k, Initial residual = 0.0588278, Final residual = 0.000166387, No Iterations 2
Before T+T solve
BiCG:  Solving for T+T, Initial residual = 0.00193766, Final residual = 0.000150118, No Iterations 3
Tres = -0.917816
TsRes = -0.430412
ExecutionTime = 0.05 s



Wall heat fluxes [W]
movingWall 0 -2.4352e-14 0 -2.4352e-14
left 0.00620459 -4.28155e-17 0 0.00620459
right -0.913608 8.17732e-15 0 -0.913608
bottom 0 0 0 0
frontAndBack 0 0 0 0
sum -0.907404 -1.62174e-14 0 -0.907404


Wall heat fluxes [W]
topAndBottom 0 0 0 0
left 4.3861 0 0 4.3861
right -1.35443 0 0 -1.35443
frontAndBack 0 0 0 0
sum 3.03166 0 0 3.03166

Time = 12

DILUPBiCG:  Solving for Ux, Initial residual = 0.0325817, Final residual = 4.6434e-06, No Iterations 2
DILUPBiCG:  Solving for Uy, Initial residual = 0.0460567, Final residual = 2.00352e-05, No Iterations 2
DICPCG:  Solving for p_rgh, Initial residual = 0.106446, Final residual = 0.00095895, No Iterations 8
time step continuity errors : sum local = 0.00136323, global = -9.17211e-16, cumulative = -8.41895e-15
DILUPBiCG:  Solving for epsilon, Initial residual = 0.0245763, Final residual = 6.52515e-05, No Iterations 2
DILUPBiCG:  Solving for k, Initial residual = 0.0569852, Final residual = 0.000172599, No Iterations 2
Before T+T solve
BiCG:  Solving for T+T, Initial residual = 0.00189042, Final residual = 0.000148179, No Iterations 3
Tres = -0.924746
TsRes = -0.335895
ExecutionTime = 0.05 s



Wall heat fluxes [W]
movingWall 0 -2.43444e-14 0 -2.43444e-14
left 0.00915669 2.49306e-17 0 0.00915669
right -0.925409 -1.23127e-14 0 -0.925409
bottom 0 0 0 0
frontAndBack 0 0 0 0
sum -0.916253 -3.66321e-14 0 -0.916253


Wall heat fluxes [W]
topAndBottom 0 0 0 0
left 3.75742 0 0 3.75742
right -1.2698 0 0 -1.2698
frontAndBack 0 0 0 0
sum 2.48762 0 0 2.48762

Time = 13

DILUPBiCG:  Solving for Ux, Initial residual = 0.0304426, Final residual = 4.48861e-06, No Iterations 2
DILUPBiCG:  Solving for Uy, Initial residual = 0.0448553, Final residual = 1.65632e-05, No Iterations 2
DICPCG:  Solving for p_rgh, Initial residual = 0.0936528, Final residual = 0.000701236, No Iterations 7
time step continuity errors : sum local = 0.000871535, global = -8.80782e-16, cumulative = -9.29973e-15
DILUPBiCG:  Solving for epsilon, Initial residual = 0.0222135, Final residual = 6.76537e-05, No Iterations 2
DILUPBiCG:  Solving for k, Initial residual = 0.0544351, Final residual = 0.000170007, No Iterations 2
Before T+T solve
BiCG:  Solving for T+T, Initial residual = 0.00186073, Final residual = 0.00013432, No Iterations 3
Tres = -0.928802
TsRes = -0.255657
ExecutionTime = 0.05 s



Wall heat fluxes [W]
movingWall 0 -2.43366e-14 0 -2.43366e-14
left 0.0128953 -1.30072e-17 0 0.0128953
right -0.935685 -9.14806e-15 0 -0.935685
bottom 0 0 0 0
frontAndBack 0 0 0 0
sum -0.92279 -3.34977e-14 0 -0.92279


Wall heat fluxes [W]
topAndBottom 0 0 0 0
left 2.94028 0 0 2.94028
right -1.19735 0 0 -1.19735
frontAndBack 0 0 0 0
sum 1.74293 0 0 1.74293

Time = 14

DILUPBiCG:  Solving for Ux, Initial residual = 0.0276715, Final residual = 2.81424e-05, No Iterations 2
DILUPBiCG:  Solving for Uy, Initial residual = 0.0434969, Final residual = 6.6491e-06, No Iterations 2
DICPCG:  Solving for p_rgh, Initial residual = 0.085718, Final residual = 0.000676063, No Iterations 7
time step continuity errors : sum local = 0.00101797, global = -7.47507e-16, cumulative = -1.00472e-14
DILUPBiCG:  Solving for epsilon, Initial residual = 0.0202482, Final residual = 6.77516e-05, No Iterations 2
DILUPBiCG:  Solving for k, Initial residual = 0.0521883, Final residual = 0.000169546, No Iterations 2
Before T+T solve
BiCG:  Solving for T+T, Initial residual = 0.00185253, Final residual = 0.000130196, No Iterations 3
Tres = -0.931147
TsRes = -0.200196
ExecutionTime = 0.05 s



Wall heat fluxes [W]
movingWall 0 -2.4329e-14 0 -2.4329e-14
left 0.017464 0 0 0.017464
right -0.943702 -5.04277e-15 0 -0.943702
bottom 0 0 0 0
frontAndBack 0 0 0 0
sum -0.926238 -2.93718e-14 0 -0.926238


Wall heat fluxes [W]
topAndBottom 0 0 0 0
left 2.58071 0 0 2.58071
right -1.14881 0 0 -1.14881
frontAndBack 0 0 0 0
sum 1.4319 0 0 1.4319

Time = 15

DILUPBiCG:  Solving for Ux, Initial residual = 0.0254286, Final residual = 6.44657e-06, No Iterations 2
DILUPBiCG:  Solving for Uy, Initial residual = 0.0419385, Final residual = 4.84746e-06, No Iterations 2
DICPCG:  Solving for p_rgh, Initial residual = 0.0827765, Final residual = 0.000178325, No Iterations 11
time step continuity errors : sum local = 0.000209193, global = -5.82997e-16, cumulative = -1.06302e-14
DILUPBiCG:  Solving for epsilon, Initial residual = 0.0188011, Final residual = 6.41295e-05, No Iterations 2
DILUPBiCG:  Solving for k, Initial residual = 0.0500599, Final residual = 0.000165328, No Iterations 2
Before T+T solve
BiCG:  Solving for T+T, Initial residual = 0.00186124, Final residual = 0.000114427, No Iterations 3
Tres = -0.931174
TsRes = -0.153333
ExecutionTime = 0.06 s



Wall heat fluxes [W]
movingWall 0 -2.4322e-14 0 -2.4322e-14
left 0.0229134 -9.10507e-17 0 0.0229134
right -0.950687 5.2791e-15 0 -0.950687
bottom 0 0 0 0
frontAndBack 0 0 0 0
sum -0.927774 -1.91339e-14 0 -0.927774


Wall heat fluxes [W]
topAndBottom 0 0 0 0
left 2.08445 0 0 2.08445
right -1.10742 0 0 -1.10742
frontAndBack 0 0 0 0
sum 0.977025 0 0 0.977025

Time = 16

DILUPBiCG:  Solving for Ux, Initial residual = 0.0234174, Final residual = 5.40148e-06, No Iterations 2
DILUPBiCG:  Solving for Uy, Initial residual = 0.0405899, Final residual = 4.52732e-06, No Iterations 2
DICPCG:  Solving for p_rgh, Initial residual = 0.0807483, Final residual = 0.000259979, No Iterations 11
time step continuity errors : sum local = 0.000342304, global = -8.29033e-16, cumulative = -1.14593e-14
DILUPBiCG:  Solving for epsilon, Initial residual = 0.0175877, Final residual = 6.01923e-05, No Iterations 2
DILUPBiCG:  Solving for k, Initial residual = 0.0485633, Final residual = 0.000153076, No Iterations 2
Before T+T solve
BiCG:  Solving for T+T, Initial residual = 0.00186489, Final residual = 0.00018241, No Iterations 2
Tres = -0.927695
TsRes = -0.143475
ExecutionTime = 0.06 s



Wall heat fluxes [W]
movingWall 0 -2.4315e-14 0 -2.4315e-14
left 0.0292702 4.85604e-16 0 0.0292702
right -0.956171 -6.89563e-15 0 -0.956171
bottom 0 0 0 0
frontAndBack 0 0 0 0
sum -0.926901 -3.07251e-14 0 -0.926901


Wall heat fluxes [W]
topAndBottom 0 0 0 0
left 1.22091 0 0 1.22091
right -1.10044 0 0 -1.10044
frontAndBack 0 0 0 0
sum 0.120471 0 0 0.120471

Time = 17

DILUPBiCG:  Solving for Ux, Initial residual = 0.0221461, Final residual = 5.92875e-06, No Iterations 2
DILUPBiCG:  Solving for Uy, Initial residual = 0.0398889, Final residual = 4.6181e-06, No Iterations 2
DICPCG:  Solving for p_rgh, Initial residual = 0.0820584, Final residual = 0.000693242, No Iterations 7
time step continuity errors : sum local = 0.00115796, global = -9.49471e-16, cumulative = -1.24087e-14
DILUPBiCG:  Solving for epsilon, Initial residual = 0.016498, Final residual = 2.92419e-06, No Iterations 3
DILUPBiCG:  Solving for k, Initial residual = 0.0466078, Final residual = 0.000143371, No Iterations 2
Before T+T solve
BiCG:  Solving for T+T, Initial residual = 0.0019193, Final residual = 0.00010518, No Iterations 3
Tres = -0.925751
TsRes = -0.110733
ExecutionTime = 0.06 s



Wall heat fluxes [W]
movingWall 0 -2.43106e-14 0 -2.43106e-14
left 0.0362802 -5.46304e-16 0 0.0362802
right -0.958963 -1.19544e-14 0 -0.958963
bottom 0 0 0 0
frontAndBack 0 0 0 0
sum -0.922682 -3.68113e-14 0 -0.922682


Wall heat fluxes [W]
topAndBottom 0 0 0 0
left 1.98185 0 0 1.98185
right -1.07276 0 0 -1.07276
frontAndBack 0 0 0 0
sum 0.909087 0 0 0.909087

Time = 18

DILUPBiCG:  Solving for Ux, Initial residual = 0.0213245, Final residual = 7.22582e-06, No Iterations 2
DILUPBiCG:  Solving for Uy, Initial residual = 0.0394466, Final residual = 0.000384849, No Iterations 1
DICPCG:  Solving for p_rgh, Initial residual = 0.0792562, Final residual = 0.000786684, No Iterations 10
time step continuity errors : sum local = 0.00114031, global = -7.9674e-16, cumulative = -1.32055e-14
DILUPBiCG:  Solving for epsilon, Initial residual = 0.0153711, Final residual = 5.28281e-05, No Iterations 2
DILUPBiCG:  Solving for k, Initial residual = 0.0448916, Final residual = 0.000136164, No Iterations 2
Before T+T solve
BiCG:  Solving for T+T, Initial residual = 0.0019186, Final residual = 0.000191399, No Iterations 1
Tres = -0.920909
TsRes = -0.105958
ExecutionTime = 0.06 s



Wall heat fluxes [W]
movingWall 0 -2.43075e-14 0 -2.43075e-14
left 0.0431527 1.04058e-16 0 0.0431527
right -0.963958 -1.84104e-15 0 -0.963958
bottom 0 0 0 0
frontAndBack 0 0 0 0
sum -0.920805 -2.60445e-14 0 -0.920805


Wall heat fluxes [W]
topAndBottom 0 0 0 0
left 0.998646 0 0 0.998646
right -1.07002 0 0 -1.07002
frontAndBack 0 0 0 0
sum -0.0713735 0 0 -0.0713735

Time = 19

DILUPBiCG:  Solving for Ux, Initial residual = 0.0196553, Final residual = 6.41997e-06, No Iterations 2
DILUPBiCG:  Solving for Uy, Initial residual = 0.0388799, Final residual = 0.000352568, No Iterations 1
DICPCG:  Solving for p_rgh, Initial residual = 0.0790996, Final residual = 0.000640152, No Iterations 6
time step continuity errors : sum local = 0.000859917, global = -5.86041e-16, cumulative = -1.37915e-14
DILUPBiCG:  Solving for epsilon, Initial residual = 0.0146455, Final residual = 4.40798e-05, No Iterations 2
DILUPBiCG:  Solving for k, Initial residual = 0.0430837, Final residual = 0.000126214, No Iterations 2
Before T+T solve
BiCG:  Solving for T+T, Initial residual = 0.0019411, Final residual = 0.000148311, No Iterations 2
Tres = -0.914533
TsRes = -0.0973769
ExecutionTime = 0.07 s



Wall heat fluxes [W]
movingWall 0 -2.43064e-14 0 -2.43064e-14
left 0.0516387 -2.77488e-16 0 0.0516387
right -0.965598 6.2154e-15 0 -0.965598
bottom 0 0 0 0
frontAndBack 0 0 0 0
sum -0.913959 -1.83685e-14 0 -0.913959


Wall heat fluxes [W]
topAndBottom 0 0 0 0
left 1.15699 0 0 1.15699
right -1.06355 0 0 -1.06355
frontAndBack 0 0 0 0
sum 0.0934432 0 0 0.0934432

Time = 20

DILUPBiCG:  Solving for Ux, Initial residual = 0.0195432, Final residual = 8.0758e-06, No Iterations 2
DILUPBiCG:  Solving for Uy, Initial residual = 0.038249, Final residual = 0.000320241, No Iterations 1
DICPCG:  Solving for p_rgh, Initial residual = 0.0786248, Final residual = 0.000669633, No Iterations 10
time step continuity errors : sum local = 0.000955351, global = -9.12149e-16, cumulative = -1.47037e-14
DILUPBiCG:  Solving for epsilon, Initial residual = 0.0145944, Final residual = 3.78998e-05, No Iterations 2
DILUPBiCG:  Solving for k, Initial residual = 0.0417649, Final residual = 0.000118284, No Iterations 2
Before T+T solve
BiCG:  Solving for T+T, Initial residual = 0.0019463, Final residual = 0.000185734, No Iterations 1
Tres = -0.908363
TsRes = -0.093275
ExecutionTime = 0.07 s



Wall heat fluxes [W]
movingWall 0 -2.43081e-14 0 -2.43081e-14
left 0.0594004 -3.12174e-16 0 0.0594004
right -0.96756 -8.05967e-15 0 -0.96756
bottom 0 0 0 0
frontAndBack 0 0 0 0
sum -0.908159 -3.268e-14 0 -0.908159


Wall heat fluxes [W]
topAndBottom 0 0 0 0
left 1.03556 0 0 1.03556
right -1.06104 0 0 -1.06104
frontAndBack 0 0 0 0
sum -0.0254749 0 0 -0.0254749

Time = 21

DILUPBiCG:  Solving for Ux, Initial residual = 0.0184883, Final residual = 8.4168e-06, No Iterations 2
DILUPBiCG:  Solving for Uy, Initial residual = 0.0375969, Final residual = 0.000294744, No Iterations 1
DICPCG:  Solving for p_rgh, Initial residual = 0.0780689, Final residual = 0.000616378, No Iterations 9
time step continuity errors : sum local = 0.00101729, global = -6.04578e-16, cumulative = -1.53082e-14
DILUPBiCG:  Solving for epsilon, Initial residual = 0.0143605, Final residual = 3.3615e-05, No Iterations 2
DILUPBiCG:  Solving for k, Initial residual = 0.040426, Final residual = 0.000112934, No Iterations 2
Before T+T solve
BiCG:  Solving for T+T, Initial residual = 0.00195925, Final residual = 0.000177526, No Iterations 1
Tres = -0.901579
TsRes = -0.0896245
ExecutionTime = 0.07 s



Wall heat fluxes [W]
movingWall 0 -2.4313e-14 0 -2.4313e-14
left 0.0674279 4.85604e-16 0 0.0674279
right -0.968813 3.2245e-15 0 -0.968813
bottom 0 0 0 0
frontAndBack 0 0 0 0
sum -0.901385 -2.06029e-14 0 -0.901385


Wall heat fluxes [W]
topAndBottom 0 0 0 0
left 1.03342 0 0 1.03342
right -1.05863 0 0 -1.05863
frontAndBack 0 0 0 0
sum -0.0252091 0 0 -0.0252091

Time = 22

DILUPBiCG:  Solving for Ux, Initial residual = 0.0178597, Final residual = 9.26747e-06, No Iterations 2
DILUPBiCG:  Solving for Uy, Initial residual = 0.0371645, Final residual = 0.000271708, No Iterations 1
DICPCG:  Solving for p_rgh, Initial residual = 0.0782397, Final residual = 0.000602932, No Iterations 9
time step continuity errors : sum local = 0.00103357, global = -7.0092e-16, cumulative = -1.60092e-14
DILUPBiCG:  Solving for epsilon, Initial residual = 0.0147436, Final residual = 3.13168e-05, No Iterations 2
DILUPBiCG:  Solving for k, Initial residual = 0.0393054, Final residual = 0.000109798, No Iterations 2
Before T+T solve
BiCG:  Solving for T+T, Initial residual = 0.00196761, Final residual = 0.000168464, No Iterations 1
Tres = -0.894484
TsRes = -0.0864352
ExecutionTime = 0.07 s



Wall heat fluxes [W]
movingWall 0 -2.43217e-14 0 -2.43217e-14
left 0.0754066 -1.38744e-16 0 0.0754066
right -0.969711 6.92285e-16 0 -0.969711
bottom 0 0 0 0
frontAndBack 0 0 0 0
sum -0.894304 -2.37681e-14 0 -0.894304


Wall heat fluxes [W]
topAndBottom 0 0 0 0
left 1.02957 0 0 1.02957
right -1.05633 0 0 -1.05633
frontAndBack 0 0 0 0
sum -0.0267585 0 0 -0.0267585

Time = 23

DILUPBiCG:  Solving for Ux, Initial residual = 0.017085, Final residual = 9.6699e-06, No Iterations 2
DILUPBiCG:  Solving for Uy, Initial residual = 0.036823, Final residual = 0.000252458, No Iterations 1
DICPCG:  Solving for p_rgh, Initial residual = 0.0778922, Final residual = 0.000577469, No Iterations 10
time step continuity errors : sum local = 0.00117323, global = -6.85037e-16, cumulative = -1.66942e-14
DILUPBiCG:  Solving for epsilon, Initial residual = 0.0151545, Final residual = 2.98039e-05, No Iterations 2
DILUPBiCG:  Solving for k, Initial residual = 0.0392021, Final residual = 0.000107538, No Iterations 2
Before T+T solve
BiCG:  Solving for T+T, Initial residual = 0.00195743, Final residual = 0.000160287, No Iterations 1
Tres = -0.887054
TsRes = -0.0836846
ExecutionTime = 0.08 s



Wall heat fluxes [W]
movingWall 0 -2.43353e-14 0 -2.43353e-14
left 0.0833733 -1.2487e-15 0 0.0833733
right -0.970252 2.53211e-15 0 -0.970252
bottom 0 0 0 0
frontAndBack 0 0 0 0
sum -0.886879 -2.30519e-14 0 -0.886879


Wall heat fluxes [W]
topAndBottom 0 0 0 0
left 1.02843 0 0 1.02843
right -1.05411 0 0 -1.05411
frontAndBack 0 0 0 0
sum -0.0256803 0 0 -0.0256803

Time = 24

DILUPBiCG:  Solving for Ux, Initial residual = 0.0162984, Final residual = 9.84638e-06, No Iterations 2
DILUPBiCG:  Solving for Uy, Initial residual = 0.036468, Final residual = 0.000236451, No Iterations 1
DICPCG:  Solving for p_rgh, Initial residual = 0.0755717, Final residual = 0.0007073, No Iterations 10
time step continuity errors : sum local = 0.00162004, global = -5.90805e-16, cumulative = -1.7285e-14
DILUPBiCG:  Solving for epsilon, Initial residual = 0.0154316, Final residual = 2.88759e-05, No Iterations 2
DILUPBiCG:  Solving for k, Initial residual = 0.0393763, Final residual = 0.000103828, No Iterations 2
Before T+T solve
BiCG:  Solving for T+T, Initial residual = 0.00194819, Final residual = 0.000154861, No Iterations 1
Tres = -0.878463
TsRes = -0.0813645
ExecutionTime = 0.08 s



Wall heat fluxes [W]
movingWall 0 -2.43554e-14 0 -2.43554e-14
left 0.0921545 2.77488e-16 0 0.0921545
right -0.970447 9.44224e-15 0 -0.970447
bottom 0 0 0 0
frontAndBack 0 0 0 0
sum -0.878292 -1.46357e-14 0 -0.878292


Wall heat fluxes [W]
topAndBottom 0 0 0 0
left 1.0273 0 0 1.0273
right -1.05198 0 0 -1.05198
frontAndBack 0 0 0 0
sum -0.0246778 0 0 -0.0246778

Time = 25

DILUPBiCG:  Solving for Ux, Initial residual = 0.0154619, Final residual = 1.02192e-05, No Iterations 2
DILUPBiCG:  Solving for Uy, Initial residual = 0.036069, Final residual = 0.000221174, No Iterations 1
DICPCG:  Solving for p_rgh, Initial residual = 0.0668027, Final residual = 0.000451738, No Iterations 10
time step continuity errors : sum local = 0.00112858, global = -7.55977e-16, cumulative = -1.8041e-14
DILUPBiCG:  Solving for epsilon, Initial residual = 0.0160194, Final residual = 2.81664e-05, No Iterations 2
DILUPBiCG:  Solving for k, Initial residual = 0.0395831, Final residual = 0.000100878, No Iterations 2
Before T+T solve
BiCG:  Solving for T+T, Initial residual = 0.00192491, Final residual = 0.000150987, No Iterations 1
Tres = -0.871289
TsRes = -0.0794653
ExecutionTime = 0.08 s



Wall heat fluxes [W]
movingWall 0 -2.43839e-14 0 -2.43839e-14
left 0.0991761 1.66493e-15 0 0.0991761
right -0.970297 -9.44215e-15 0 -0.970297
bottom 0 0 0 0
frontAndBack 0 0 0 0
sum -0.871121 -3.21611e-14 0 -0.871121


Wall heat fluxes [W]
topAndBottom 0 0 0 0
left 1.02651 0 0 1.02651
right -1.04993 0 0 -1.04993
frontAndBack 0 0 0 0
sum -0.0234195 0 0 -0.0234195

Time = 26

DILUPBiCG:  Solving for Ux, Initial residual = 0.0148363, Final residual = 1.09243e-05, No Iterations 2
DILUPBiCG:  Solving for Uy, Initial residual = 0.0356471, Final residual = 0.000205426, No Iterations 1
DICPCG:  Solving for p_rgh, Initial residual = 0.0603713, Final residual = 0.000519504, No Iterations 10
time step continuity errors : sum local = 0.00141217, global = -8.09975e-16, cumulative = -1.8851e-14
DILUPBiCG:  Solving for epsilon, Initial residual = 0.0162943, Final residual = 2.77287e-05, No Iterations 2
DILUPBiCG:  Solving for k, Initial residual = 0.0401969, Final residual = 9.86722e-05, No Iterations 2
Before T+T solve
BiCG:  Solving for T+T, Initial residual = 0.00191105, Final residual = 0.000149017, No Iterations 1
Tres = -0.865573
TsRes = -0.0779874
ExecutionTime = 0.08 s



Wall heat fluxes [W]
movingWall 0 -2.44229e-14 0 -2.44229e-14
left 0.104391 -2.2199e-15 0 0.104391
right -0.969796 1.15134e-15 0 -0.969796
bottom 0 0 0 0
frontAndBack 0 0 0 0
sum -0.865405 -2.54914e-14 0 -0.865405


Wall heat fluxes [W]
topAndBottom 0 0 0 0
left 1.02582 0 0 1.02582
right -1.04795 0 0 -1.04795
frontAndBack 0 0 0 0
sum -0.0221359 0 0 -0.0221359

Time = 27

DILUPBiCG:  Solving for Ux, Initial residual = 0.01442, Final residual = 1.18454e-05, No Iterations 2
DILUPBiCG:  Solving for Uy, Initial residual = 0.0352181, Final residual = 0.000189972, No Iterations 1
DICPCG:  Solving for p_rgh, Initial residual = 0.0577563, Final residual = 0.000566042, No Iterations 9
time step continuity errors : sum local = 0.00171291, global = -8.95737e-16, cumulative = -1.97467e-14
DILUPBiCG:  Solving for epsilon, Initial residual = 0.0162776, Final residual = 2.74299e-05, No Iterations 2
DILUPBiCG:  Solving for k, Initial residual = 0.0406615, Final residual = 9.72926e-05, No Iterations 2
Before T+T solve
BiCG:  Solving for T+T, Initial residual = 0.00190046, Final residual = 0.0001464, No Iterations 1
Tres = -0.86176
TsRes = -0.0769445
ExecutionTime = 0.09 s



Wall heat fluxes [W]
movingWall 0 -2.44744e-14 0 -2.44744e-14
left 0.107333 -2.2199e-15 0 0.107333
right -0.968924 -6.44907e-15 0 -0.968924
bottom 0 0 0 0
frontAndBack 0 0 0 0
sum -0.861591 -3.31433e-14 0 -0.861591


Wall heat fluxes [W]
topAndBottom 0 0 0 0
left 1.0252 0 0 1.0252
right -1.04604 0 0 -1.04604
frontAndBack 0 0 0 0
sum -0.0208384 0 0 -0.0208384

Time = 28

DILUPBiCG:  Solving for Ux, Initial residual = 0.014093, Final residual = 1.30137e-05, No Iterations 2
DILUPBiCG:  Solving for Uy, Initial residual = 0.0346719, Final residual = 0.000172766, No Iterations 1
DICPCG:  Solving for p_rgh, Initial residual = 0.0561582, Final residual = 0.000508595, No Iterations 10
time step continuity errors : sum local = 0.0017866, global = -7.06214e-16, cumulative = -2.04529e-14
DILUPBiCG:  Solving for epsilon, Initial residual = 0.0163907, Final residual = 2.75297e-05, No Iterations 2
DILUPBiCG:  Solving for k, Initial residual = 0.0406778, Final residual = 9.63396e-05, No Iterations 2
Before T+T solve
BiCG:  Solving for T+T, Initial residual = 0.00187659, Final residual = 0.000142825, No Iterations 1
Tres = -0.855788
TsRes = -0.0763556
ExecutionTime = 0.09 s



Wall heat fluxes [W]
movingWall 0 -2.454e-14 0 -2.454e-14
left 0.11204 2.77488e-16 0 0.11204
right -0.967658 -1.38182e-15 0 -0.967658
bottom 0 0 0 0
frontAndBack 0 0 0 0
sum -0.855617 -2.56443e-14 0 -0.855617


Wall heat fluxes [W]
topAndBottom 0 0 0 0
left 1.02464 0 0 1.02464
right -1.04418 0 0 -1.04418
frontAndBack 0 0 0 0
sum -0.0195454 0 0 -0.0195454

Time = 29

DILUPBiCG:  Solving for Ux, Initial residual = 0.0138544, Final residual = 1.46426e-05, No Iterations 2
DILUPBiCG:  Solving for Uy, Initial residual = 0.0341402, Final residual = 0.000158586, No Iterations 1
DICPCG:  Solving for p_rgh, Initial residual = 0.0506723, Final residual = 0.000209057, No Iterations 11
time step continuity errors : sum local = 0.000845473, global = -9.44442e-16, cumulative = -2.13974e-14
DILUPBiCG:  Solving for epsilon, Initial residual = 0.0163965, Final residual = 2.81595e-05, No Iterations 2
DILUPBiCG:  Solving for k, Initial residual = 0.0402908, Final residual = 9.29431e-05, No Iterations 2
Before T+T solve
BiCG:  Solving for T+T, Initial residual = 0.00184829, Final residual = 0.000138486, No Iterations 1
Tres = -0.847277
TsRes = -0.0762491
ExecutionTime = 0.09 s



Wall heat fluxes [W]
movingWall 0 -2.46203e-14 0 -2.46203e-14
left 0.11886 -3.05237e-15 0 0.11886
right -0.965963 -7.83324e-15 0 -0.965963
bottom 0 0 0 0
frontAndBack 0 0 0 0
sum -0.847103 -3.55059e-14 0 -0.847103


Wall heat fluxes [W]
topAndBottom 0 0 0 0
left 1.02407 0 0 1.02407
right -1.04239 0 0 -1.04239
frontAndBack 0 0 0 0
sum -0.0183113 0 0 -0.0183113

Time = 30

DILUPBiCG:  Solving for Ux, Initial residual = 0.0138762, Final residual = 2.5803e-05, No Iterations 2
DILUPBiCG:  Solving for Uy, Initial residual = 0.0334853, Final residual = 0.000175728, No Iterations 1
DICPCG:  Solving for p_rgh, Initial residual = 0.0399826, Final residual = 0.000198881, No Iterations 11
time step continuity errors : sum local = 0.000803192, global = -6.41627e-16, cumulative = -2.2039e-14
DILUPBiCG:  Solving for epsilon, Initial residual = 0.0162283, Final residual = 2.88158e-05, No Iterations 2
DILUPBiCG:  Solving for k, Initial residual = 0.0397171, Final residual = 8.677e-05, No Iterations 2
Before T+T solve
BiCG:  Solving for T+T, Initial residual = 0.00182358, Final residual = 0.000134285, No Iterations 1
Tres = -0.838737
TsRes = -0.0766523
ExecutionTime = 0.09 s



Wall heat fluxes [W]
movingWall 0 -2.47147e-14 0 -2.47147e-14
left 0.125249 -1.66493e-15 0 0.125249
right -0.963808 2.76457e-15 0 -0.963808
bottom 0 0 0 0
frontAndBack 0 0 0 0
sum -0.838558 -2.3615e-14 0 -0.838558


Wall heat fluxes [W]
topAndBottom 0 0 0 0
left 1.02349 0 0 1.02349
right -1.04064 0 0 -1.04064
frontAndBack 0 0 0 0
sum -0.0171456 0 0 -0.0171456

Time = 31

DILUPBiCG:  Solving for Ux, Initial residual = 0.0138592, Final residual = 3.35386e-08, No Iterations 3
DILUPBiCG:  Solving for Uy, Initial residual = 0.0324404, Final residual = 0.000199475, No Iterations 1
DICPCG:  Solving for p_rgh, Initial residual = 0.029765, Final residual = 0.000242699, No Iterations 10
time step continuity errors : sum local = 0.000969431, global = -7.46448e-16, cumulative = -2.27854e-14
DILUPBiCG:  Solving for epsilon, Initial residual = 0.0161955, Final residual = 2.90486e-05, No Iterations 2
DILUPBiCG:  Solving for k, Initial residual = 0.0387773, Final residual = 7.64735e-05, No Iterations 2
Before T+T solve
BiCG:  Solving for T+T, Initial residual = 0.00180138, Final residual = 0.000131837, No Iterations 1
Tres = -0.828843
TsRes = -0.077591
ExecutionTime = 0.1 s



Wall heat fluxes [W]
movingWall 0 -2.48216e-14 0 -2.48216e-14
left 0.132502 3.88483e-15 0 0.132502
right -0.96116 -3.68707e-15 0 -0.96116
bottom 0 0 0 0
frontAndBack 0 0 0 0
sum -0.828658 -2.46239e-14 0 -0.828658


Wall heat fluxes [W]
topAndBottom 0 0 0 0
left 1.02288 0 0 1.02288
right -1.03894 0 0 -1.03894
frontAndBack 0 0 0 0
sum -0.0160569 0 0 -0.0160569

Time = 32

DILUPBiCG:  Solving for Ux, Initial residual = 0.0136978, Final residual = 2.24103e-05, No Iterations 2
DILUPBiCG:  Solving for Uy, Initial residual = 0.0311922, Final residual = 0.000191898, No Iterations 1
DICPCG:  Solving for p_rgh, Initial residual = 0.0276745, Final residual = 6.96094e-05, No Iterations 10
time step continuity errors : sum local = 0.000277187, global = -7.61271e-16, cumulative = -2.35467e-14
DILUPBiCG:  Solving for epsilon, Initial residual = 0.0160117, Final residual = 2.27962e-05, No Iterations 2
DILUPBiCG:  Solving for k, Initial residual = 0.0378823, Final residual = 6.30136e-05, No Iterations 2
Before T+T solve
BiCG:  Solving for T+T, Initial residual = 0.00177348, Final residual = 0.000130547, No Iterations 1
Tres = -0.818727
TsRes = -0.0790842
ExecutionTime = 0.1 s



Wall heat fluxes [W]
movingWall 0 -2.494e-14 0 -2.494e-14
left 0.139461 5.54976e-16 0 0.139461
right -0.957995 -3.68646e-15 0 -0.957995
bottom 0 0 0 0
frontAndBack 0 0 0 0
sum -0.818534 -2.80715e-14 0 -0.818534


Wall heat fluxes [W]
topAndBottom 0 0 0 0
left 1.02223 0 0 1.02223
right -1.03727 0 0 -1.03727
frontAndBack 0 0 0 0
sum -0.0150446 0 0 -0.0150446

Time = 33

DILUPBiCG:  Solving for Ux, Initial residual = 0.0134611, Final residual = 1.24632e-05, No Iterations 2
DILUPBiCG:  Solving for Uy, Initial residual = 0.0300252, Final residual = 0.00017756, No Iterations 1
DICPCG:  Solving for p_rgh, Initial residual = 0.0323603, Final residual = 0.000117843, No Iterations 10
time step continuity errors : sum local = 0.000447123, global = -5.56924e-16, cumulative = -2.41036e-14
DILUPBiCG:  Solving for epsilon, Initial residual = 0.015655, Final residual = 1.38601e-05, No Iterations 2
DILUPBiCG:  Solving for k, Initial residual = 0.0365814, Final residual = 5.22389e-05, No Iterations 2
Before T+T solve
BiCG:  Solving for T+T, Initial residual = 0.00174101, Final residual = 0.000129762, No Iterations 1
Tres = -0.808432
TsRes = -0.0811366
ExecutionTime = 0.1 s



Wall heat fluxes [W]
movingWall 0 -2.50687e-14 0 -2.50687e-14
left 0.146069 -1.66493e-15 0 0.146069
right -0.9543 6.91359e-15 0 -0.9543
bottom 0 0 0 0
frontAndBack 0 0 0 0
sum -0.808231 -1.982e-14 0 -0.808231


Wall heat fluxes [W]
topAndBottom 0 0 0 0
left 1.02153 0 0 1.02153
right -1.03564 0 0 -1.03564
frontAndBack 0 0 0 0
sum -0.0141126 0 0 -0.0141126

Time = 34

DILUPBiCG:  Solving for Ux, Initial residual = 0.0132273, Final residual = 8.77325e-06, No Iterations 2
DILUPBiCG:  Solving for Uy, Initial residual = 0.0290823, Final residual = 0.000167109, No Iterations 1
DICPCG:  Solving for p_rgh, Initial residual = 0.0368359, Final residual = 0.000242487, No Iterations 10
time step continuity errors : sum local = 0.000878715, global = -5.53748e-16, cumulative = -2.46574e-14
DILUPBiCG:  Solving for epsilon, Initial residual = 0.0152953, Final residual = 1.24318e-05, No Iterations 2
DILUPBiCG:  Solving for k, Initial residual = 0.0348444, Final residual = 4.95546e-05, No Iterations 2
Before T+T solve
BiCG:  Solving for T+T, Initial residual = 0.00169929, Final residual = 0.000130193, No Iterations 1
Tres = -0.797918
TsRes = -0.0837343
ExecutionTime = 0.1 s



Wall heat fluxes [W]
movingWall 0 -2.52056e-14 0 -2.52056e-14
left 0.152373 -1.66493e-15 0 0.152373
right -0.950079 9.68117e-15 0 -0.950079
bottom 0 0 0 0
frontAndBack 0 0 0 0
sum -0.797706 -1.71893e-14 0 -0.797706


Wall heat fluxes [W]
topAndBottom 0 0 0 0
left 1.02075 0 0 1.02075
right -1.03403 0 0 -1.03403
frontAndBack 0 0 0 0
sum -0.0132756 0 0 -0.0132756

Time = 35

DILUPBiCG:  Solving for Ux, Initial residual = 0.012938, Final residual = 6.70044e-06, No Iterations 2
DILUPBiCG:  Solving for Uy, Initial residual = 0.0283359, Final residual = 0.000157909, No Iterations 1
DICPCG:  Solving for p_rgh, Initial residual = 0.0399345, Final residual = 0.000219031, No Iterations 11
time step continuity errors : sum local = 0.000733201, global = -7.26331e-16, cumulative = -2.53837e-14
DILUPBiCG:  Solving for epsilon, Initial residual = 0.014889, Final residual = 1.34906e-05, No Iterations 2
DILUPBiCG:  Solving for k, Initial residual = 0.0327959, Final residual = 5.08815e-05, No Iterations 2
Before T+T solve
BiCG:  Solving for T+T, Initial residual = 0.00166337, Final residual = 0.000131414, No Iterations 1
Tres = -0.787385
TsRes = -0.086841
ExecutionTime = 0.11 s



Wall heat fluxes [W]
movingWall 0 -2.53479e-14 0 -2.53479e-14
left 0.1582 3.32986e-15 0 0.1582
right -0.945362 2.53635e-15 0 -0.945362
bottom 0 0 0 0
frontAndBack 0 0 0 0
sum -0.787162 -1.94817e-14 0 -0.787162


Wall heat fluxes [W]
topAndBottom 0 0 0 0
left 1.01986 0 0 1.01986
right -1.03243 0 0 -1.03243
frontAndBack 0 0 0 0
sum -0.0125618 0 0 -0.0125618

Time = 36

DILUPBiCG:  Solving for Ux, Initial residual = 0.0127065, Final residual = 5.48613e-06, No Iterations 2
DILUPBiCG:  Solving for Uy, Initial residual = 0.027703, Final residual = 0.000147701, No Iterations 1
DICPCG:  Solving for p_rgh, Initial residual = 0.0428179, Final residual = 0.000371695, No Iterations 10
time step continuity errors : sum local = 0.00116057, global = -7.73976e-16, cumulative = -2.61577e-14
DILUPBiCG:  Solving for epsilon, Initial residual = 0.0142648, Final residual = 1.52885e-05, No Iterations 2
DILUPBiCG:  Solving for k, Initial residual = 0.0305962, Final residual = 5.4305e-05, No Iterations 2
Before T+T solve
BiCG:  Solving for T+T, Initial residual = 0.00162898, Final residual = 0.000133813, No Iterations 1
Tres = -0.777095
TsRes = -0.0903953
ExecutionTime = 0.11 s



Wall heat fluxes [W]
movingWall 0 -2.54928e-14 0 -2.54928e-14
left 0.163338 0 0 0.163338
right -0.940198 -2.76702e-15 0 -0.940198
bottom 0 0 0 0
frontAndBack 0 0 0 0
sum -0.77686 -2.82598e-14 0 -0.77686


Wall heat fluxes [W]
topAndBottom 0 0 0 0
left 1.01882 0 0 1.01882
right -1.03083 0 0 -1.03083
frontAndBack 0 0 0 0
sum -0.0120098 0 0 -0.0120098

Time = 37

DILUPBiCG:  Solving for Ux, Initial residual = 0.0123991, Final residual = 4.69372e-06, No Iterations 2
DILUPBiCG:  Solving for Uy, Initial residual = 0.0271204, Final residual = 0.00013963, No Iterations 1
DICPCG:  Solving for p_rgh, Initial residual = 0.0460118, Final residual = 0.000456222, No Iterations 10
time step continuity errors : sum local = 0.00136616, global = -6.7445e-16, cumulative = -2.68321e-14
DILUPBiCG:  Solving for epsilon, Initial residual = 0.0135471, Final residual = 1.67819e-05, No Iterations 2
DILUPBiCG:  Solving for k, Initial residual = 0.0280907, Final residual = 5.83031e-05, No Iterations 2
Before T+T solve
BiCG:  Solving for T+T, Initial residual = 0.00159231, Final residual = 0.000137201, No Iterations 1
Tres = -0.767187
TsRes = -0.0943116
ExecutionTime = 0.11 s



Wall heat fluxes [W]
movingWall 0 -2.56372e-14 0 -2.56372e-14
left 0.167725 1.66493e-15 0 0.167725
right -0.934663 -1.38306e-15 0 -0.934663
bottom 0 0 0 0
frontAndBack 0 0 0 0
sum -0.766939 -2.53554e-14 0 -0.766939


Wall heat fluxes [W]
topAndBottom 0 0 0 0
left 1.01756 0 0 1.01756
right -1.02922 0 0 -1.02922
frontAndBack 0 0 0 0
sum -0.0116626 0 0 -0.0116626

Time = 38

DILUPBiCG:  Solving for Ux, Initial residual = 0.0120798, Final residual = 4.22718e-06, No Iterations 2
DILUPBiCG:  Solving for Uy, Initial residual = 0.026596, Final residual = 0.000129682, No Iterations 1
DICPCG:  Solving for p_rgh, Initial residual = 0.0490542, Final residual = 0.000247551, No Iterations 11
time step continuity errors : sum local = 0.000731654, global = -7.68682e-16, cumulative = -2.76008e-14
DILUPBiCG:  Solving for epsilon, Initial residual = 0.012722, Final residual = 1.78716e-05, No Iterations 2
DILUPBiCG:  Solving for k, Initial residual = 0.0252892, Final residual = 6.11366e-05, No Iterations 2
Before T+T solve
BiCG:  Solving for T+T, Initial residual = 0.00155462, Final residual = 0.000141812, No Iterations 1
Tres = -0.755903
TsRes = -0.0984843
ExecutionTime = 0.11 s



Wall heat fluxes [W]
movingWall 0 -2.57694e-14 0 -2.57694e-14
left 0.173213 3.32986e-15 0 0.173213
right -0.928854 -8.30106e-15 0 -0.928854
bottom 0 0 0 0
frontAndBack 0 0 0 0
sum -0.755642 -3.07406e-14 0 -0.755642


Wall heat fluxes [W]
topAndBottom 0 0 0 0
left 1.01605 0 0 1.01605
right -1.0276 0 0 -1.0276
frontAndBack 0 0 0 0
sum -0.0115526 0 0 -0.0115526

Time = 39

DILUPBiCG:  Solving for Ux, Initial residual = 0.0118147, Final residual = 0.000110677, No Iterations 1
DILUPBiCG:  Solving for Uy, Initial residual = 0.0261297, Final residual = 0.000119758, No Iterations 1
DICPCG:  Solving for p_rgh, Initial residual = 0.0330966, Final residual = 0.00021656, No Iterations 11
time step continuity errors : sum local = 0.000598802, global = -7.30566e-16, cumulative = -2.83314e-14
DILUPBiCG:  Solving for epsilon, Initial residual = 0.0118455, Final residual = 1.87218e-05, No Iterations 2
DILUPBiCG:  Solving for k, Initial residual = 0.0226895, Final residual = 6.30938e-05, No Iterations 2
Before T+T solve
BiCG:  Solving for T+T, Initial residual = 0.00151505, Final residual = 0.000147621, No Iterations 1
Tres = -0.745399
TsRes = -0.102793
ExecutionTime = 0.12 s



Wall heat fluxes [W]
movingWall 0 -2.58969e-14 0 -2.58969e-14
left 0.177756 -2.2199e-15 0 0.177756
right -0.922881 -1.15312e-15 0 -0.922881
bottom 0 0 0 0
frontAndBack 0 0 0 0
sum -0.745125 -2.92699e-14 0 -0.745125


Wall heat fluxes [W]
topAndBottom 0 0 0 0
left 1.01423 0 0 1.01423
right -1.02595 0 0 -1.02595
frontAndBack 0 0 0 0
sum -0.0117145 0 0 -0.0117145

Time = 40

DILUPBiCG:  Solving for Ux, Initial residual = 0.0114113, Final residual = 0.000102166, No Iterations 1
DILUPBiCG:  Solving for Uy, Initial residual = 0.0257033, Final residual = 0.000115356, No Iterations 1
DICPCG:  Solving for p_rgh, Initial residual = 0.0317855, Final residual = 0.000270421, No Iterations 11
time step continuity errors : sum local = 0.000722613, global = -6.07746e-16, cumulative = -2.89391e-14
DILUPBiCG:  Solving for epsilon, Initial residual = 0.0110106, Final residual = 1.91457e-05, No Iterations 2
DILUPBiCG:  Solving for k, Initial residual = 0.0201554, Final residual = 6.42497e-05, No Iterations 2
Before T+T solve
BiCG:  Solving for T+T, Initial residual = 0.00147684, Final residual = 6.93587e-05, No Iterations 3
Tres = -0.737864
TsRes = -0.0867988
ExecutionTime = 0.12 s



Wall heat fluxes [W]
movingWall 0 -2.60123e-14 0 -2.60123e-14
left 0.181639 0 0 0.181639
right -0.916875 1.38394e-15 0 -0.916875
bottom 0 0 0 0
frontAndBack 0 0 0 0
sum -0.735236 -2.46284e-14 0 -0.735236


Wall heat fluxes [W]
topAndBottom 0 0 0 0
left 1.79284 0 0 1.79284
right -1.0063 0 0 -1.0063
frontAndBack 0 0 0 0
sum 0.786542 0 0 0.786542

Time = 41

DILUPBiCG:  Solving for Ux, Initial residual = 0.0109795, Final residual = 9.58318e-05, No Iterations 1
DILUPBiCG:  Solving for Uy, Initial residual = 0.0253678, Final residual = 0.00010919, No Iterations 1
DICPCG:  Solving for p_rgh, Initial residual = 0.0337712, Final residual = 0.000289708, No Iterations 11
time step continuity errors : sum local = 0.000740804, global = -7.53859e-16, cumulative = -2.9693e-14
DILUPBiCG:  Solving for epsilon, Initial residual = 0.0102049, Final residual = 1.91899e-05, No Iterations 2
DILUPBiCG:  Solving for k, Initial residual = 0.0177598, Final residual = 6.48736e-05, No Iterations 2
Before T+T solve
BiCG:  Solving for T+T, Initial residual = 0.00141325, Final residual = 0.000115704, No Iterations 1
Tres = -0.728305
TsRes = -0.0907497
ExecutionTime = 0.12 s



Wall heat fluxes [W]
movingWall 0 -2.61173e-14 0 -2.61173e-14
left 0.18501 5.54976e-16 0 0.18501
right -0.913211 -5.77153e-15 0 -0.913211
bottom 0 0 0 0
frontAndBack 0 0 0 0
sum -0.728201 -3.13339e-14 0 -0.728201


Wall heat fluxes [W]
topAndBottom 0 0 0 0
left 0.948025 0 0 0.948025
right -1.00406 0 0 -1.00406
frontAndBack 0 0 0 0
sum -0.0560404 0 0 -0.0560404

Time = 42

DILUPBiCG:  Solving for Ux, Initial residual = 0.0105135, Final residual = 8.9378e-05, No Iterations 1
DILUPBiCG:  Solving for Uy, Initial residual = 0.0251267, Final residual = 0.0001098, No Iterations 1
DICPCG:  Solving for p_rgh, Initial residual = 0.0343796, Final residual = 0.000288246, No Iterations 10
time step continuity errors : sum local = 0.000701783, global = -4.44163e-16, cumulative = -3.01371e-14
DILUPBiCG:  Solving for epsilon, Initial residual = 0.00942232, Final residual = 1.8974e-05, No Iterations 2
DILUPBiCG:  Solving for k, Initial residual = 0.0156248, Final residual = 6.5511e-05, No Iterations 2
Before T+T solve
BiCG:  Solving for T+T, Initial residual = 0.00140062, Final residual = 5.06926e-05, No Iterations 3
Tres = -0.721644
TsRes = -0.0699303
ExecutionTime = 0.12 s



Wall heat fluxes [W]
movingWall 0 -2.62097e-14 0 -2.62097e-14
left 0.187954 2.2199e-15 0 0.187954
right -0.907297 4.61726e-15 0 -0.907297
bottom 0 0 0 0
frontAndBack 0 0 0 0
sum -0.719343 -1.93725e-14 0 -0.719343


Wall heat fluxes [W]
topAndBottom 0 0 0 0
left 1.67458 0 0 1.67458
right -0.979528 0 0 -0.979528
frontAndBack 0 0 0 0
sum 0.695054 0 0 0.695054

Time = 43

DILUPBiCG:  Solving for Ux, Initial residual = 0.0102071, Final residual = 8.47395e-05, No Iterations 1
DILUPBiCG:  Solving for Uy, Initial residual = 0.0249424, Final residual = 0.000107298, No Iterations 1
DICPCG:  Solving for p_rgh, Initial residual = 0.0329826, Final residual = 0.000202308, No Iterations 10
time step continuity errors : sum local = 0.000460908, global = -5.98746e-16, cumulative = -3.07359e-14
DILUPBiCG:  Solving for epsilon, Initial residual = 0.00868551, Final residual = 1.83825e-05, No Iterations 2
DILUPBiCG:  Solving for k, Initial residual = 0.0137333, Final residual = 6.57344e-05, No Iterations 2
Before T+T solve
BiCG:  Solving for T+T, Initial residual = 0.00133671, Final residual = 0.000103404, No Iterations 1
Tres = -0.713216
TsRes = -0.0743331
ExecutionTime = 0.13 s



Wall heat fluxes [W]
movingWall 0 -2.62908e-14 0 -2.62908e-14
left 0.190595 2.77488e-15 0 0.190595
right -0.903747 4.62131e-16 0 -0.903747
bottom 0 0 0 0
frontAndBack 0 0 0 0
sum -0.713152 -2.30538e-14 0 -0.713152


Wall heat fluxes [W]
topAndBottom 0 0 0 0
left 0.925125 0 0 0.925125
right -0.978144 0 0 -0.978144
frontAndBack 0 0 0 0
sum -0.0530189 0 0 -0.0530189

Time = 44

DILUPBiCG:  Solving for Ux, Initial residual = 0.00974982, Final residual = 7.95028e-05, No Iterations 1
DILUPBiCG:  Solving for Uy, Initial residual = 0.0248879, Final residual = 0.0001115, No Iterations 1
DICPCG:  Solving for p_rgh, Initial residual = 0.0321839, Final residual = 0.000292237, No Iterations 7
time step continuity errors : sum local = 0.000875451, global = -7.10978e-16, cumulative = -3.14469e-14
DILUPBiCG:  Solving for epsilon, Initial residual = 0.00801588, Final residual = 1.75257e-05, No Iterations 2
DILUPBiCG:  Solving for k, Initial residual = 0.0121139, Final residual = 6.61564e-05, No Iterations 2
Before T+T solve
BiCG:  Solving for T+T, Initial residual = 0.00131226, Final residual = 0.000126766, No Iterations 2
Tres = -0.705999
TsRes = -0.0736815
ExecutionTime = 0.13 s



Wall heat fluxes [W]
movingWall 0 -2.63576e-14 0 -2.63576e-14
left 0.193213 3.88483e-15 0 0.193213
right -0.89849 -6.70082e-15 0 -0.89849
bottom 0 0 0 0
frontAndBack 0 0 0 0
sum -0.705277 -2.91736e-14 0 -0.705277


Wall heat fluxes [W]
topAndBottom 0 0 0 0
left 1.13931 0 0 1.13931
right -0.972894 0 0 -0.972894
frontAndBack 0 0 0 0
sum 0.166412 0 0 0.166412

Time = 45

DILUPBiCG:  Solving for Ux, Initial residual = 0.00932196, Final residual = 7.63836e-05, No Iterations 1
DILUPBiCG:  Solving for Uy, Initial residual = 0.0248621, Final residual = 0.000106739, No Iterations 1
DICPCG:  Solving for p_rgh, Initial residual = 0.0306385, Final residual = 9.79758e-05, No Iterations 12
time step continuity errors : sum local = 0.000204735, global = -7.14684e-16, cumulative = -3.21616e-14
DILUPBiCG:  Solving for epsilon, Initial residual = 0.00754624, Final residual = 1.69862e-05, No Iterations 2
DILUPBiCG:  Solving for k, Initial residual = 0.0109171, Final residual = 6.61552e-05, No Iterations 2
Before T+T solve
BiCG:  Solving for T+T, Initial residual = 0.00127152, Final residual = 0.000114498, No Iterations 2
Tres = -0.69903
TsRes = -0.0733387
ExecutionTime = 0.13 s



Wall heat fluxes [W]
movingWall 0 -2.64133e-14 0 -2.64133e-14
left 0.19575 5.54976e-16 0 0.19575
right -0.894289 1.38675e-15 0 -0.894289
bottom 0 0 0 0
frontAndBack 0 0 0 0
sum -0.698539 -2.44716e-14 0 -0.698539


Wall heat fluxes [W]
topAndBottom 0 0 0 0
left 1.05788 0 0 1.05788
right -0.968118 0 0 -0.968118
frontAndBack 0 0 0 0
sum 0.0897583 0 0 0.0897583

Time = 46

DILUPBiCG:  Solving for Ux, Initial residual = 0.00890019, Final residual = 7.06044e-05, No Iterations 1
DILUPBiCG:  Solving for Uy, Initial residual = 0.0249849, Final residual = 0.000114722, No Iterations 1
DICPCG:  Solving for p_rgh, Initial residual = 0.0288023, Final residual = 0.000199369, No Iterations 7
time step continuity errors : sum local = 0.000537321, global = -7.77153e-16, cumulative = -3.29387e-14
DILUPBiCG:  Solving for epsilon, Initial residual = 0.00720775, Final residual = 1.68472e-05, No Iterations 2
DILUPBiCG:  Solving for k, Initial residual = 0.0100369, Final residual = 6.70021e-05, No Iterations 2
Before T+T solve
BiCG:  Solving for T+T, Initial residual = 0.00123703, Final residual = 0.000115431, No Iterations 2
Tres = -0.692405
TsRes = -0.0727252
ExecutionTime = 0.13 s



Wall heat fluxes [W]
movingWall 0 -2.64584e-14 0 -2.64584e-14
left 0.198439 0 0 0.198439
right -0.890325 6.93619e-16 0 -0.890325
bottom 0 0 0 0
frontAndBack 0 0 0 0
sum -0.691886 -2.57647e-14 0 -0.691886


Wall heat fluxes [W]
topAndBottom 0 0 0 0
left 1.06315 0 0 1.06315
right -0.963569 0 0 -0.963569
frontAndBack 0 0 0 0
sum 0.0995772 0 0 0.0995772

Time = 47

DILUPBiCG:  Solving for Ux, Initial residual = 0.00847577, Final residual = 6.61954e-05, No Iterations 1
DILUPBiCG:  Solving for Uy, Initial residual = 0.0250267, Final residual = 0.000117026, No Iterations 1
DICPCG:  Solving for p_rgh, Initial residual = 0.027013, Final residual = 0.000267541, No Iterations 7
time step continuity errors : sum local = 0.000707347, global = -8.90443e-16, cumulative = -3.38291e-14
DILUPBiCG:  Solving for epsilon, Initial residual = 0.0069633, Final residual = 1.66745e-05, No Iterations 2
DILUPBiCG:  Solving for k, Initial residual = 0.00938722, Final residual = 6.738e-05, No Iterations 2
Before T+T solve
BiCG:  Solving for T+T, Initial residual = 0.00120366, Final residual = 0.000112449, No Iterations 2
Tres = -0.686076
TsRes = -0.0719395
ExecutionTime = 0.14 s



Wall heat fluxes [W]
movingWall 0 -2.64938e-14 0 -2.64938e-14
left 0.201269 -3.60734e-15 0 0.201269
right -0.886872 9.24541e-16 0 -0.886872
bottom 0 0 0 0
frontAndBack 0 0 0 0
sum -0.685602 -2.91766e-14 0 -0.685602


Wall heat fluxes [W]
topAndBottom 0 0 0 0
left 1.04467 0 0 1.04467
right -0.959285 0 0 -0.959285
frontAndBack 0 0 0 0
sum 0.0853893 0 0 0.0853893

Time = 48

DILUPBiCG:  Solving for Ux, Initial residual = 0.00807037, Final residual = 6.19357e-05, No Iterations 1
DILUPBiCG:  Solving for Uy, Initial residual = 0.0250918, Final residual = 0.000122336, No Iterations 1
DICPCG:  Solving for p_rgh, Initial residual = 0.025503, Final residual = 9.67888e-05, No Iterations 12
time step continuity errors : sum local = 0.000188757, global = -4.3834e-16, cumulative = -3.42675e-14
DILUPBiCG:  Solving for epsilon, Initial residual = 0.00676246, Final residual = 1.58971e-05, No Iterations 2
DILUPBiCG:  Solving for k, Initial residual = 0.0089913, Final residual = 6.66106e-05, No Iterations 2
Before T+T solve
BiCG:  Solving for T+T, Initial residual = 0.00116628, Final residual = 0.000110259, No Iterations 2
Tres = -0.680033
TsRes = -0.0708445
ExecutionTime = 0.14 s



Wall heat fluxes [W]
movingWall 0 -2.65206e-14 0 -2.65206e-14
left 0.204283 1.10995e-15 0 0.204283
right -0.883861 4.16199e-15 0 -0.883861
bottom 0 0 0 0
frontAndBack 0 0 0 0
sum -0.679578 -2.12486e-14 0 -0.679578


Wall heat fluxes [W]
topAndBottom 0 0 0 0
left 1.03542 0 0 1.03542
right -0.95516 0 0 -0.95516
frontAndBack 0 0 0 0
sum 0.080263 0 0 0.080263

Time = 49

DILUPBiCG:  Solving for Ux, Initial residual = 0.00771544, Final residual = 5.8003e-05, No Iterations 1
DILUPBiCG:  Solving for Uy, Initial residual = 0.0251965, Final residual = 0.000139575, No Iterations 1
DICPCG:  Solving for p_rgh, Initial residual = 0.0241078, Final residual = 0.000143774, No Iterations 6
time step continuity errors : sum local = 0.000279499, global = -1.01856e-15, cumulative = -3.5286e-14
DILUPBiCG:  Solving for epsilon, Initial residual = 0.00655951, Final residual = 1.50082e-05, No Iterations 2
DILUPBiCG:  Solving for k, Initial residual = 0.00872694, Final residual = 6.31325e-05, No Iterations 2
Before T+T solve
BiCG:  Solving for T+T, Initial residual = 0.00113426, Final residual = 0.000107355, No Iterations 2
Tres = -0.674132
TsRes = -0.0694393
ExecutionTime = 0.14 s



Wall heat fluxes [W]
movingWall 0 -2.65389e-14 0 -2.65389e-14
left 0.207606 -3.05237e-15 0 0.207606
right -0.881307 -5.08815e-15 0 -0.881307
bottom 0 0 0 0
frontAndBack 0 0 0 0
sum -0.673701 -3.46794e-14 0 -0.673701


Wall heat fluxes [W]
topAndBottom 0 0 0 0
left 1.02511 0 0 1.02511
right -0.951178 0 0 -0.951178
frontAndBack 0 0 0 0
sum 0.0739316 0 0 0.0739316

Time = 50

DILUPBiCG:  Solving for Ux, Initial residual = 0.00740125, Final residual = 5.45523e-05, No Iterations 1
DILUPBiCG:  Solving for Uy, Initial residual = 0.0252589, Final residual = 0.000158137, No Iterations 1
DICPCG:  Solving for p_rgh, Initial residual = 0.0228546, Final residual = 0.00014003, No Iterations 6
time step continuity errors : sum local = 0.000338417, global = -6.11452e-16, cumulative = -3.58975e-14
DILUPBiCG:  Solving for epsilon, Initial residual = 0.0063411, Final residual = 1.40731e-05, No Iterations 2
DILUPBiCG:  Solving for k, Initial residual = 0.00847481, Final residual = 5.57547e-05, No Iterations 2
Before T+T solve
BiCG:  Solving for T+T, Initial residual = 0.00110076, Final residual = 0.000104159, No Iterations 2
Tres = -0.668418
TsRes = -0.0677302
ExecutionTime = 0.14 s



Wall heat fluxes [W]
movingWall 0 -2.65508e-14 0 -2.65508e-14
left 0.211171 1.38744e-15 0 0.211171
right -0.879179 5.55144e-15 0 -0.879179
bottom 0 0 0 0
frontAndBack 0 0 0 0
sum -0.668008 -1.9612e-14 0 -0.668008


Wall heat fluxes [W]
topAndBottom 0 0 0 0
left 1.01614 0 0 1.01614
right -0.94732 0 0 -0.94732
frontAndBack 0 0 0 0
sum 0.0688173 0 0 0.0688173

Time = 51

DILUPBiCG:  Solving for Ux, Initial residual = 0.00712753, Final residual = 5.18574e-05, No Iterations 1
DILUPBiCG:  Solving for Uy, Initial residual = 0.0253149, Final residual = 0.000184292, No Iterations 1
DICPCG:  Solving for p_rgh, Initial residual = 0.0207506, Final residual = 0.00014488, No Iterations 6
time step continuity errors : sum local = 0.000392832, global = -5.8657e-16, cumulative = -3.64841e-14
DILUPBiCG:  Solving for epsilon, Initial residual = 0.00612812, Final residual = 1.3264e-05, No Iterations 2
DILUPBiCG:  Solving for k, Initial residual = 0.00823684, Final residual = 4.7831e-05, No Iterations 2
Before T+T solve
BiCG:  Solving for T+T, Initial residual = 0.00106958, Final residual = 0.000100701, No Iterations 2
Tres = -0.66288
TsRes = -0.065748
ExecutionTime = 0.14 s



Wall heat fluxes [W]
movingWall 0 -2.65582e-14 0 -2.65582e-14
left 0.214953 1.94242e-15 0 0.214953
right -0.877443 -1.38817e-15 0 -0.877443
bottom 0 0 0 0
frontAndBack 0 0 0 0
sum -0.66249 -2.60039e-14 0 -0.66249


Wall heat fluxes [W]
topAndBottom 0 0 0 0
left 1.00765 0 0 1.00765
right -0.943581 0 0 -0.943581
frontAndBack 0 0 0 0
sum 0.0640683 0 0 0.0640683

Time = 52

DILUPBiCG:  Solving for Ux, Initial residual = 0.00687874, Final residual = 4.96245e-05, No Iterations 1
DILUPBiCG:  Solving for Uy, Initial residual = 0.0253744, Final residual = 0.000214618, No Iterations 1
DICPCG:  Solving for p_rgh, Initial residual = 0.0187588, Final residual = 0.00016159, No Iterations 6
time step continuity errors : sum local = 0.000463394, global = -8.42268e-16, cumulative = -3.73263e-14
DILUPBiCG:  Solving for epsilon, Initial residual = 0.00598129, Final residual = 1.26385e-05, No Iterations 2
DILUPBiCG:  Solving for k, Initial residual = 0.00807372, Final residual = 4.18091e-05, No Iterations 2
Before T+T solve
BiCG:  Solving for T+T, Initial residual = 0.00104095, Final residual = 9.70567e-05, No Iterations 2
Tres = -0.657481
TsRes = -0.0635339
ExecutionTime = 0.15 s



Wall heat fluxes [W]
movingWall 0 -2.65624e-14 0 -2.65624e-14
left 0.218946 -1.10995e-15 0 0.218946
right -0.876056 -4.39617e-15 0 -0.876056
bottom 0 0 0 0
frontAndBack 0 0 0 0
sum -0.65711 -3.20685e-14 0 -0.65711


Wall heat fluxes [W]
topAndBottom 0 0 0 0
left 0.999752 0 0 0.999752
right -0.939961 0 0 -0.939961
frontAndBack 0 0 0 0
sum 0.0597912 0 0 0.0597912

Time = 53

DILUPBiCG:  Solving for Ux, Initial residual = 0.00663923, Final residual = 4.75409e-05, No Iterations 1
DILUPBiCG:  Solving for Uy, Initial residual = 0.0254381, Final residual = 0.000247416, No Iterations 1
DICPCG:  Solving for p_rgh, Initial residual = 0.0167881, Final residual = 7.16804e-05, No Iterations 10
time step continuity errors : sum local = 0.000135489, global = -5.45277e-16, cumulative = -3.78716e-14
DILUPBiCG:  Solving for epsilon, Initial residual = 0.00583241, Final residual = 1.21988e-05, No Iterations 2
DILUPBiCG:  Solving for k, Initial residual = 0.00797888, Final residual = 3.75922e-05, No Iterations 2
Before T+T solve
BiCG:  Solving for T+T, Initial residual = 0.00101574, Final residual = 9.32735e-05, No Iterations 2
Tres = -0.652174
TsRes = -0.0611354
ExecutionTime = 0.15 s



Wall heat fluxes [W]
movingWall 0 -2.65646e-14 0 -2.65646e-14
left 0.223149 4.99478e-15 0 0.223149
right -0.874971 4.1649e-15 0 -0.874971
bottom 0 0 0 0
frontAndBack 0 0 0 0
sum -0.651822 -1.74049e-14 0 -0.651822


Wall heat fluxes [W]
topAndBottom 0 0 0 0
left 0.992403 0 0 0.992403
right -0.936458 0 0 -0.936458
frontAndBack 0 0 0 0
sum 0.0559446 0 0 0.0559446

Time = 54

DILUPBiCG:  Solving for Ux, Initial residual = 0.00650577, Final residual = 4.53468e-05, No Iterations 1
DILUPBiCG:  Solving for Uy, Initial residual = 0.0254785, Final residual = 2.35359e-06, No Iterations 2
DICPCG:  Solving for p_rgh, Initial residual = 0.017271, Final residual = 6.77017e-05, No Iterations 6
time step continuity errors : sum local = 0.000187927, global = -8.01505e-16, cumulative = -3.86731e-14
DILUPBiCG:  Solving for epsilon, Initial residual = 0.00569412, Final residual = 1.18072e-05, No Iterations 2
DILUPBiCG:  Solving for k, Initial residual = 0.00785989, Final residual = 3.46974e-05, No Iterations 2
Before T+T solve
BiCG:  Solving for T+T, Initial residual = 0.000993134, Final residual = 8.93601e-05, No Iterations 2
Tres = -0.646959
TsRes = -0.0586049
ExecutionTime = 0.15 s



Wall heat fluxes [W]
movingWall 0 -2.65658e-14 0 -2.65658e-14
left 0.227512 -2.77488e-16 0 0.227512
right -0.874137 1.15609e-15 0 -0.874137
bottom 0 0 0 0
frontAndBack 0 0 0 0
sum -0.646624 -2.56872e-14 0 -0.646624


Wall heat fluxes [W]
topAndBottom 0 0 0 0
left 0.98556 0 0 0.98556
right -0.933076 0 0 -0.933076
frontAndBack 0 0 0 0
sum 0.0524846 0 0 0.0524846

Time = 55

DILUPBiCG:  Solving for Ux, Initial residual = 0.00638565, Final residual = 4.48118e-05, No Iterations 1
DILUPBiCG:  Solving for Uy, Initial residual = 0.0255337, Final residual = 2.19408e-06, No Iterations 2
DICPCG:  Solving for p_rgh, Initial residual = 0.0182049, Final residual = 7.9441e-05, No Iterations 6
time step continuity errors : sum local = 0.000227911, global = -6.45863e-16, cumulative = -3.9319e-14
DILUPBiCG:  Solving for epsilon, Initial residual = 0.00553643, Final residual = 1.15377e-05, No Iterations 2
DILUPBiCG:  Solving for k, Initial residual = 0.00770368, Final residual = 3.28727e-05, No Iterations 2
Before T+T solve
BiCG:  Solving for T+T, Initial residual = 0.000972513, Final residual = 8.54257e-05, No Iterations 2
Tres = -0.641802
TsRes = -0.0559927
ExecutionTime = 0.15 s



Wall heat fluxes [W]
movingWall 0 -2.65669e-14 0 -2.65669e-14
left 0.232019 2.77488e-16 0 0.232019
right -0.873504 2.31486e-15 0 -0.873504
bottom 0 0 0 0
frontAndBack 0 0 0 0
sum -0.641485 -2.39745e-14 0 -0.641485


Wall heat fluxes [W]
topAndBottom 0 0 0 0
left 0.979239 0 0 0.979239
right -0.929814 0 0 -0.929814
frontAndBack 0 0 0 0
sum 0.0494252 0 0 0.0494252

Time = 56

DILUPBiCG:  Solving for Ux, Initial residual = 0.00625344, Final residual = 4.55297e-05, No Iterations 1
DILUPBiCG:  Solving for Uy, Initial residual = 0.0255907, Final residual = 1.99155e-06, No Iterations 2
DICPCG:  Solving for p_rgh, Initial residual = 0.0188251, Final residual = 0.000107035, No Iterations 6
time step continuity errors : sum local = 0.000312804, global = -6.59627e-16, cumulative = -3.99786e-14
DILUPBiCG:  Solving for epsilon, Initial residual = 0.00536418, Final residual = 1.13491e-05, No Iterations 2
DILUPBiCG:  Solving for k, Initial residual = 0.0075121, Final residual = 3.15809e-05, No Iterations 2
Before T+T solve
BiCG:  Solving for T+T, Initial residual = 0.000953951, Final residual = 8.14455e-05, No Iterations 2
Tres = -0.636688
TsRes = -0.0533471
ExecutionTime = 0.16 s



Wall heat fluxes [W]
movingWall 0 -2.65683e-14 0 -2.65683e-14
left 0.236637 -2.77488e-16 0 0.236637
right -0.873024 1.38935e-15 0 -0.873024
bottom 0 0 0 0
frontAndBack 0 0 0 0
sum -0.636387 -2.54565e-14 0 -0.636387


Wall heat fluxes [W]
topAndBottom 0 0 0 0
left 0.973424 0 0 0.973424
right -0.926673 0 0 -0.926673
frontAndBack 0 0 0 0
sum 0.0467513 0 0 0.0467513

Time = 57

DILUPBiCG:  Solving for Ux, Initial residual = 0.00616446, Final residual = 4.68146e-05, No Iterations 1
DILUPBiCG:  Solving for Uy, Initial residual = 0.0256589, Final residual = 1.78035e-06, No Iterations 2
DICPCG:  Solving for p_rgh, Initial residual = 0.0189579, Final residual = 0.000136315, No Iterations 6
time step continuity errors : sum local = 0.0003942, global = -7.43271e-16, cumulative = -4.07219e-14
DILUPBiCG:  Solving for epsilon, Initial residual = 0.00518558, Final residual = 1.12107e-05, No Iterations 2
DILUPBiCG:  Solving for k, Initial residual = 0.00733052, Final residual = 3.04168e-05, No Iterations 2
Before T+T solve
BiCG:  Solving for T+T, Initial residual = 0.000937328, Final residual = 7.75108e-05, No Iterations 2
Tres = -0.631584
TsRes = -0.0507124
ExecutionTime = 0.16 s



Wall heat fluxes [W]
movingWall 0 -2.65701e-14 0 -2.65701e-14
left 0.241355 0 0 0.241355
right -0.872653 4.39839e-15 0 -0.872653
bottom 0 0 0 0
frontAndBack 0 0 0 0
sum -0.631298 -2.21717e-14 0 -0.631298


Wall heat fluxes [W]
topAndBottom 0 0 0 0
left 0.968116 0 0 0.968116
right -0.923652 0 0 -0.923652
frontAndBack 0 0 0 0
sum 0.0444649 0 0 0.0444649

Time = 58

DILUPBiCG:  Solving for Ux, Initial residual = 0.00610636, Final residual = 4.83318e-05, No Iterations 1
DILUPBiCG:  Solving for Uy, Initial residual = 0.0257191, Final residual = 1.57994e-06, No Iterations 2
DICPCG:  Solving for p_rgh, Initial residual = 0.0183345, Final residual = 0.000141714, No Iterations 6
time step continuity errors : sum local = 0.000404392, global = -5.15631e-16, cumulative = -4.12375e-14
DILUPBiCG:  Solving for epsilon, Initial residual = 0.0050038, Final residual = 1.10935e-05, No Iterations 2
DILUPBiCG:  Solving for k, Initial residual = 0.00714928, Final residual = 2.93721e-05, No Iterations 2
Before T+T solve
BiCG:  Solving for T+T, Initial residual = 0.00092303, Final residual = 7.39508e-05, No Iterations 2
Tres = -0.626497
TsRes = -0.048128
ExecutionTime = 0.16 s



Wall heat fluxes [W]
movingWall 0 -2.65728e-14 0 -2.65728e-14
left 0.246124 -1.10995e-15 0 0.246124
right -0.872348 8.1034e-15 0 -0.872348
bottom 0 0 0 0
frontAndBack 0 0 0 0
sum -0.626224 -1.95793e-14 0 -0.626224


Wall heat fluxes [W]
topAndBottom 0 0 0 0
left 0.96331 0 0 0.96331
right -0.920748 0 0 -0.920748
frontAndBack 0 0 0 0
sum 0.0425614 0 0 0.0425614

Time = 59

DILUPBiCG:  Solving for Ux, Initial residual = 0.00605921, Final residual = 5.02216e-05, No Iterations 1
DILUPBiCG:  Solving for Uy, Initial residual = 0.0257687, Final residual = 1.38659e-06, No Iterations 2
DICPCG:  Solving for p_rgh, Initial residual = 0.0174021, Final residual = 0.000117799, No Iterations 6
time step continuity errors : sum local = 0.000320434, global = -8.22664e-16, cumulative = -4.20602e-14
DILUPBiCG:  Solving for epsilon, Initial residual = 0.00483176, Final residual = 1.09717e-05, No Iterations 2
DILUPBiCG:  Solving for k, Initial residual = 0.00694061, Final residual = 2.82949e-05, No Iterations 2
Before T+T solve
BiCG:  Solving for T+T, Initial residual = 0.000910225, Final residual = 9.04184e-05, No Iterations 1
Tres = -0.621466
TsRes = -0.0474977
ExecutionTime = 0.16 s



Wall heat fluxes [W]
movingWall 0 -2.65773e-14 0 -2.65773e-14
left 0.250694 1.94242e-15 0 0.250694
right -0.872056 -6.48384e-15 0 -0.872056
bottom 0 0 0 0
frontAndBack 0 0 0 0
sum -0.621361 -3.11187e-14 0 -0.621361


Wall heat fluxes [W]
topAndBottom 0 0 0 0
left 0.906806 0 0 0.906806
right -0.919658 0 0 -0.919658
frontAndBack 0 0 0 0
sum -0.012851 0 0 -0.012851

Time = 60

DILUPBiCG:  Solving for Ux, Initial residual = 0.00603454, Final residual = 5.23426e-05, No Iterations 1
DILUPBiCG:  Solving for Uy, Initial residual = 0.0258105, Final residual = 1.20226e-06, No Iterations 2
DICPCG:  Solving for p_rgh, Initial residual = 0.0169664, Final residual = 9.59564e-05, No Iterations 6
time step continuity errors : sum local = 0.000216309, global = -8.48092e-16, cumulative = -4.29083e-14
DILUPBiCG:  Solving for epsilon, Initial residual = 0.00468274, Final residual = 1.08484e-05, No Iterations 2
DILUPBiCG:  Solving for k, Initial residual = 0.00675206, Final residual = 2.71614e-05, No Iterations 2
Before T+T solve
BiCG:  Solving for T+T, Initial residual = 0.000904417, Final residual = 8.96343e-05, No Iterations 1
Tres = -0.616459
TsRes = -0.0468504
ExecutionTime = 0.17 s



Wall heat fluxes [W]
movingWall 0 -2.65835e-14 0 -2.65835e-14
left 0.25527 -2.49739e-15 0 0.25527
right -0.871617 -4.63275e-16 0 -0.871617
bottom 0 0 0 0
frontAndBack 0 0 0 0
sum -0.616346 -2.95442e-14 0 -0.616346


Wall heat fluxes [W]
topAndBottom 0 0 0 0
left 0.909253 0 0 0.909253
right -0.91858 0 0 -0.91858
frontAndBack 0 0 0 0
sum -0.00932713 0 0 -0.00932713

Time = 61

DILUPBiCG:  Solving for Ux, Initial residual = 0.00604321, Final residual = 5.58214e-05, No Iterations 1
DILUPBiCG:  Solving for Uy, Initial residual = 0.0258469, Final residual = 1.32044e-06, No Iterations 2
DICPCG:  Solving for p_rgh, Initial residual = 0.0160245, Final residual = 0.000124022, No Iterations 6
time step continuity errors : sum local = 0.000324841, global = -6.52215e-16, cumulative = -4.35605e-14
DILUPBiCG:  Solving for epsilon, Initial residual = 0.00452255, Final residual = 1.06995e-05, No Iterations 2
DILUPBiCG:  Solving for k, Initial residual = 0.00655198, Final residual = 2.60981e-05, No Iterations 2
Before T+T solve
BiCG:  Solving for T+T, Initial residual = 0.000897019, Final residual = 8.6976e-05, No Iterations 1
Tres = -0.611305
TsRes = -0.0462493
ExecutionTime = 0.17 s



Wall heat fluxes [W]
movingWall 0 -2.65918e-14 0 -2.65918e-14
left 0.259969 -2.77488e-16 0 0.259969
right -0.871168 3.24161e-15 0 -0.871168
bottom 0 0 0 0
frontAndBack 0 0 0 0
sum -0.611199 -2.36276e-14 0 -0.611199


Wall heat fluxes [W]
topAndBottom 0 0 0 0
left 0.90642 0 0 0.90642
right -0.917523 0 0 -0.917523
frontAndBack 0 0 0 0
sum -0.0111026 0 0 -0.0111026

Time = 62

DILUPBiCG:  Solving for Ux, Initial residual = 0.006075, Final residual = 5.63829e-07, No Iterations 2
DILUPBiCG:  Solving for Uy, Initial residual = 0.0258758, Final residual = 1.43015e-06, No Iterations 2
DICPCG:  Solving for p_rgh, Initial residual = 0.0148335, Final residual = 5.92086e-05, No Iterations 12
time step continuity errors : sum local = 0.00012117, global = -9.32795e-16, cumulative = -4.44933e-14
DILUPBiCG:  Solving for epsilon, Initial residual = 0.00434758, Final residual = 1.05253e-05, No Iterations 2
DILUPBiCG:  Solving for k, Initial residual = 0.0063082, Final residual = 2.4978e-05, No Iterations 2
Before T+T solve
BiCG:  Solving for T+T, Initial residual = 0.000890729, Final residual = 8.44118e-05, No Iterations 1
Tres = -0.606096
TsRes = -0.0457157
ExecutionTime = 0.17 s



Wall heat fluxes [W]
movingWall 0 -2.66023e-14 0 -2.66023e-14
left 0.264673 8.32464e-16 0 0.264673
right -0.870663 -3.93688e-15 0 -0.870663
bottom 0 0 0 0
frontAndBack 0 0 0 0
sum -0.60599 -2.97067e-14 0 -0.60599


Wall heat fluxes [W]
topAndBottom 0 0 0 0
left 0.905831 0 0 0.905831
right -0.916485 0 0 -0.916485
frontAndBack 0 0 0 0
sum -0.0106535 0 0 -0.0106535

Time = 63

DILUPBiCG:  Solving for Ux, Initial residual = 0.00610478, Final residual = 5.50721e-07, No Iterations 2
DILUPBiCG:  Solving for Uy, Initial residual = 0.0259317, Final residual = 1.53883e-06, No Iterations 2
DICPCG:  Solving for p_rgh, Initial residual = 0.0134548, Final residual = 5.67704e-05, No Iterations 12
time step continuity errors : sum local = 0.000116594, global = -5.82335e-16, cumulative = -4.50756e-14
DILUPBiCG:  Solving for epsilon, Initial residual = 0.00418405, Final residual = 1.033e-05, No Iterations 2
DILUPBiCG:  Solving for k, Initial residual = 0.00609305, Final residual = 2.40115e-05, No Iterations 2
Before T+T solve
BiCG:  Solving for T+T, Initial residual = 0.000884283, Final residual = 8.20796e-05, No Iterations 1
Tres = -0.600951
TsRes = -0.0452738
ExecutionTime = 0.18 s



Wall heat fluxes [W]
movingWall 0 -2.66153e-14 0 -2.66153e-14
left 0.269239 1.38744e-15 0 0.269239
right -0.870086 3.70517e-15 0 -0.870086
bottom 0 0 0 0
frontAndBack 0 0 0 0
sum -0.600847 -2.15227e-14 0 -0.600847


Wall heat fluxes [W]
topAndBottom 0 0 0 0
left 0.904825 0 0 0.904825
right -0.915464 0 0 -0.915464
frontAndBack 0 0 0 0
sum -0.0106384 0 0 -0.0106384

Time = 64

DILUPBiCG:  Solving for Ux, Initial residual = 0.00615198, Final residual = 5.43457e-07, No Iterations 2
DILUPBiCG:  Solving for Uy, Initial residual = 0.0259462, Final residual = 1.64507e-06, No Iterations 2
DICPCG:  Solving for p_rgh, Initial residual = 0.0124048, Final residual = 5.18403e-05, No Iterations 12
time step continuity errors : sum local = 0.00010683, global = -7.12566e-16, cumulative = -4.57882e-14
DILUPBiCG:  Solving for epsilon, Initial residual = 0.0040299, Final residual = 1.01106e-05, No Iterations 2
DILUPBiCG:  Solving for k, Initial residual = 0.00588181, Final residual = 2.30405e-05, No Iterations 2
Before T+T solve
BiCG:  Solving for T+T, Initial residual = 0.000877977, Final residual = 8.00214e-05, No Iterations 1
Tres = -0.595884
TsRes = -0.0449397
ExecutionTime = 0.18 s



Wall heat fluxes [W]
movingWall 0 -2.66307e-14 0 -2.66307e-14
left 0.273635 2.77488e-16 0 0.273635
right -0.869415 1.62078e-15 0 -0.869415
bottom 0 0 0 0
frontAndBack 0 0 0 0
sum -0.595781 -2.47325e-14 0 -0.595781


Wall heat fluxes [W]
topAndBottom 0 0 0 0
left 0.90407 0 0 0.90407
right -0.914459 0 0 -0.914459
frontAndBack 0 0 0 0
sum -0.0103883 0 0 -0.0103883

Time = 65

DILUPBiCG:  Solving for Ux, Initial residual = 0.00621807, Final residual = 5.42768e-07, No Iterations 2
DILUPBiCG:  Solving for Uy, Initial residual = 0.0259482, Final residual = 1.78435e-06, No Iterations 2
DICPCG:  Solving for p_rgh, Initial residual = 0.0115269, Final residual = 9.20865e-05, No Iterations 11
time step continuity errors : sum local = 0.000189902, global = -6.54333e-16, cumulative = -4.64425e-14
DILUPBiCG:  Solving for epsilon, Initial residual = 0.00388277, Final residual = 9.86513e-06, No Iterations 2
DILUPBiCG:  Solving for k, Initial residual = 0.00564689, Final residual = 2.20501e-05, No Iterations 2
Before T+T solve
BiCG:  Solving for T+T, Initial residual = 0.000871851, Final residual = 7.82749e-05, No Iterations 1
Tres = -0.590905
TsRes = -0.0447252
ExecutionTime = 0.18 s



Wall heat fluxes [W]
movingWall 0 -2.66485e-14 0 -2.66485e-14
left 0.277839 1.10995e-15 0 0.277839
right -0.86864 4.62907e-16 0 -0.86864
bottom 0 0 0 0
frontAndBack 0 0 0 0
sum -0.590801 -2.50756e-14 0 -0.590801


Wall heat fluxes [W]
topAndBottom 0 0 0 0
left 0.903318 0 0 0.903318
right -0.913469 0 0 -0.913469
frontAndBack 0 0 0 0
sum -0.0101514 0 0 -0.0101514

Time = 66

DILUPBiCG:  Solving for Ux, Initial residual = 0.00628552, Final residual = 5.44261e-07, No Iterations 2
DILUPBiCG:  Solving for Uy, Initial residual = 0.0259524, Final residual = 1.92316e-06, No Iterations 2
DICPCG:  Solving for p_rgh, Initial residual = 0.0109116, Final residual = 5.07942e-05, No Iterations 11
time step continuity errors : sum local = 0.00010416, global = -8.57621e-16, cumulative = -4.73001e-14
DILUPBiCG:  Solving for epsilon, Initial residual = 0.00373226, Final residual = 9.57996e-06, No Iterations 2
DILUPBiCG:  Solving for k, Initial residual = 0.00539744, Final residual = 2.10658e-05, No Iterations 2
Before T+T solve
BiCG:  Solving for T+T, Initial residual = 0.000865968, Final residual = 7.69103e-05, No Iterations 1
Tres = -0.586019
TsRes = -0.0446366
ExecutionTime = 0.18 s



Wall heat fluxes [W]
movingWall 0 -2.66684e-14 0 -2.66684e-14
left 0.281838 0 0 0.281838
right -0.867752 -1.8529e-15 0 -0.867752
bottom 0 0 0 0
frontAndBack 0 0 0 0
sum -0.585914 -2.85213e-14 0 -0.585914


Wall heat fluxes [W]
topAndBottom 0 0 0 0
left 0.902616 0 0 0.902616
right -0.912494 0 0 -0.912494
frontAndBack 0 0 0 0
sum -0.00987755 0 0 -0.00987755

Time = 67

DILUPBiCG:  Solving for Ux, Initial residual = 0.00637059, Final residual = 5.52116e-07, No Iterations 2
DILUPBiCG:  Solving for Uy, Initial residual = 0.0259591, Final residual = 2.05704e-06, No Iterations 2
[...]
DILUPBiCG:  Solving for k, Initial residual = 9.36572e-08, Final residual = 2.37376e-11, No Iterations 3
Before T+T solve
BiCG:  Solving for T+T, Initial residual = 3.26708e-09, Final residual = 2.64106e-10, No Iterations 1
Tres = 1.74292e-07
TsRes = -7.90701e-08
ExecutionTime = 2.24 s



Wall heat fluxes [W]
movingWall 0 -3.05924e-14 0 -3.05924e-14
left 0.594111 -5.27227e-15 0 0.594111
right -0.594111 -1.48525e-18 0 -0.594111
bottom 0 0 0 0
frontAndBack 0 0 0 0
sum 1.74583e-07 -3.58662e-14 0 1.74583e-07


Wall heat fluxes [W]
topAndBottom 0 0 0 0
left 0.594111 0 0 0.594111
right -0.594111 0 0 -0.594111
frontAndBack 0 0 0 0
sum 1.7756e-08 0 0 1.7756e-08

Time = 985

DILUPBiCG:  Solving for Ux, Initial residual = 0.0159551, Final residual = 4.41771e-06, No Iterations 2
DILUPBiCG:  Solving for Uy, Initial residual = 0.0339997, Final residual = 1.33324e-05, No Iterations 2
DICPCG:  Solving for p_rgh, Initial residual = 7.6649e-08, Final residual = 3.36796e-10, No Iterations 6
time step continuity errors : sum local = 9.12141e-10, global = -7.03037e-16, cumulative = -6.99555e-13
DILUPBiCG:  Solving for epsilon, Initial residual = 4.94133e-08, Final residual = 1.78143e-10, No Iterations 2
DILUPBiCG:  Solving for k, Initial residual = 9.34032e-08, Final residual = 2.4141e-11, No Iterations 3
Before T+T solve
BiCG:  Solving for T+T, Initial residual = 3.23312e-09, Final residual = 2.83973e-10, No Iterations 1
Tres = 1.75885e-07
TsRes = -9.11245e-08
ExecutionTime = 2.24 s



Wall heat fluxes [W]
movingWall 0 -3.05924e-14 0 -3.05924e-14
left 0.594111 -8.32464e-16 0 0.594111
right -0.594111 1.40721e-15 0 -0.594111
bottom 0 0 0 0
frontAndBack 0 0 0 0
sum 1.76202e-07 -3.00177e-14 0 1.76202e-07


Wall heat fluxes [W]
topAndBottom 0 0 0 0
left 0.594111 0 0 0.594111
right -0.594111 0 0 -0.594111
frontAndBack 0 0 0 0
sum 1.4087e-08 0 0 1.4087e-08

Time = 986

DILUPBiCG:  Solving for Ux, Initial residual = 0.0159551, Final residual = 4.41771e-06, No Iterations 2
DILUPBiCG:  Solving for Uy, Initial residual = 0.0339997, Final residual = 1.33324e-05, No Iterations 2
DICPCG:  Solving for p_rgh, Initial residual = 7.74153e-08, Final residual = 3.72691e-10, No Iterations 6
time step continuity errors : sum local = 9.94133e-10, global = -6.6598e-16, cumulative = -7.00221e-13
DILUPBiCG:  Solving for epsilon, Initial residual = 4.9435e-08, Final residual = 1.81442e-10, No Iterations 2
DILUPBiCG:  Solving for k, Initial residual = 9.28308e-08, Final residual = 2.44571e-11, No Iterations 3
Before T+T solve
BiCG:  Solving for T+T, Initial residual = 3.20583e-09, Final residual = 3.03872e-10, No Iterations 1
Tres = 1.77546e-07
TsRes = -1.02752e-07
ExecutionTime = 2.24 s



Wall heat fluxes [W]
movingWall 0 -3.05924e-14 0 -3.05924e-14
left 0.594111 -2.77488e-16 0 0.594111
right -0.594111 2.81399e-15 0 -0.594111
bottom 0 0 0 0
frontAndBack 0 0 0 0
sum 1.77886e-07 -2.80559e-14 0 1.77886e-07


Wall heat fluxes [W]
topAndBottom 0 0 0 0
left 0.594111 0 0 0.594111
right -0.594111 0 0 -0.594111
frontAndBack 0 0 0 0
sum 1.03756e-08 0 0 1.03756e-08

Time = 987

DILUPBiCG:  Solving for Ux, Initial residual = 0.0159551, Final residual = 4.41771e-06, No Iterations 2
DILUPBiCG:  Solving for Uy, Initial residual = 0.0339997, Final residual = 1.33324e-05, No Iterations 2
DICPCG:  Solving for p_rgh, Initial residual = 7.77146e-08, Final residual = 4.15689e-10, No Iterations 6
time step continuity errors : sum local = 1.27132e-09, global = -5.50571e-16, cumulative = -7.00771e-13
DILUPBiCG:  Solving for epsilon, Initial residual = 4.9257e-08, Final residual = 1.84261e-10, No Iterations 2
DILUPBiCG:  Solving for k, Initial residual = 9.19255e-08, Final residual = 2.4678e-11, No Iterations 3
Before T+T solve
BiCG:  Solving for T+T, Initial residual = 3.17323e-09, Final residual = 2.2458e-10, No Iterations 2
Tres = 1.78741e-07
TsRes = -1.12399e-07
ExecutionTime = 2.24 s



Wall heat fluxes [W]
movingWall 0 -3.05924e-14 0 -3.05924e-14
left 0.594111 3.05237e-15 0 0.594111
right -0.594111 3.75206e-15 0 -0.594111
bottom 0 0 0 0
frontAndBack 0 0 0 0
sum 1.7956e-07 -2.3788e-14 0 1.7956e-07


Wall heat fluxes [W]
topAndBottom 0 0 0 0
left 0.594112 0 0 0.594112
right -0.594111 0 0 -0.594111
frontAndBack 0 0 0 0
sum 1.59875e-07 0 0 1.59875e-07

Time = 988

DILUPBiCG:  Solving for Ux, Initial residual = 0.0159551, Final residual = 4.41771e-06, No Iterations 2
DILUPBiCG:  Solving for Uy, Initial residual = 0.0339997, Final residual = 1.33324e-05, No Iterations 2
DICPCG:  Solving for p_rgh, Initial residual = 7.75019e-08, Final residual = 5.12208e-10, No Iterations 6
time step continuity errors : sum local = 1.76905e-09, global = -7.60212e-16, cumulative = -7.01531e-13
DILUPBiCG:  Solving for epsilon, Initial residual = 4.89702e-08, Final residual = 1.86702e-10, No Iterations 2
DILUPBiCG:  Solving for k, Initial residual = 9.10334e-08, Final residual = 2.48138e-11, No Iterations 3
Before T+T solve
BiCG:  Solving for T+T, Initial residual = 3.12509e-09, Final residual = 2.29511e-10, No Iterations 2
Tres = 1.80211e-07
TsRes = -1.20773e-07
ExecutionTime = 2.24 s



Wall heat fluxes [W]
movingWall 0 -3.05924e-14 0 -3.05924e-14
left 0.594111 -2.2199e-15 0 0.594111
right -0.594111 3.28373e-15 0 -0.594111
bottom 0 0 0 0
frontAndBack 0 0 0 0
sum 1.8092e-07 -2.95286e-14 0 1.8092e-07


Wall heat fluxes [W]
topAndBottom 0 0 0 0
left 0.594112 0 0 0.594112
right -0.594111 0 0 -0.594111
frontAndBack 0 0 0 0
sum 1.14754e-07 0 0 1.14754e-07

Time = 989

DILUPBiCG:  Solving for Ux, Initial residual = 0.0159551, Final residual = 4.41771e-06, No Iterations 2
DILUPBiCG:  Solving for Uy, Initial residual = 0.0339997, Final residual = 1.33324e-05, No Iterations 2
DICPCG:  Solving for p_rgh, Initial residual = 7.76299e-08, Final residual = 6.57214e-10, No Iterations 6
time step continuity errors : sum local = 2.40978e-09, global = -6.99861e-16, cumulative = -7.02231e-13
DILUPBiCG:  Solving for epsilon, Initial residual = 4.851e-08, Final residual = 1.8834e-10, No Iterations 2
DILUPBiCG:  Solving for k, Initial residual = 9.00027e-08, Final residual = 2.48765e-11, No Iterations 3
Before T+T solve
BiCG:  Solving for T+T, Initial residual = 3.07253e-09, Final residual = 2.43183e-10, No Iterations 2
Tres = 1.818e-07
TsRes = -1.27823e-07
ExecutionTime = 2.25 s



Wall heat fluxes [W]
movingWall 0 -3.05924e-14 0 -3.05924e-14
left 0.594111 1.94242e-15 0 0.594111
right -0.594111 1.87701e-15 0 -0.594111
bottom 0 0 0 0
frontAndBack 0 0 0 0
sum 1.82555e-07 -2.6773e-14 0 1.82555e-07


Wall heat fluxes [W]
topAndBottom 0 0 0 0
left 0.594112 0 0 0.594112
right -0.594111 0 0 -0.594111
frontAndBack 0 0 0 0
sum 1.23216e-07 0 0 1.23216e-07

Time = 990

DILUPBiCG:  Solving for Ux, Initial residual = 0.0159551, Final residual = 4.41771e-06, No Iterations 2
DILUPBiCG:  Solving for Uy, Initial residual = 0.0339997, Final residual = 1.33324e-05, No Iterations 2
DICPCG:  Solving for p_rgh, Initial residual = 7.75026e-08, Final residual = 4.95868e-10, No Iterations 12
time step continuity errors : sum local = 1.26211e-09, global = -7.65506e-16, cumulative = -7.02997e-13
DILUPBiCG:  Solving for epsilon, Initial residual = 4.78892e-08, Final residual = 1.89323e-10, No Iterations 2
DILUPBiCG:  Solving for k, Initial residual = 8.87673e-08, Final residual = 2.4847e-11, No Iterations 3
Before T+T solve
BiCG:  Solving for T+T, Initial residual = 3.01085e-09, Final residual = 2.5208e-10, No Iterations 2
Tres = 1.83457e-07
TsRes = -1.33823e-07
ExecutionTime = 2.25 s



Wall heat fluxes [W]
movingWall 0 -3.05924e-14 0 -3.05924e-14
left 0.594111 -2.77488e-16 0 0.594111
right -0.594111 -5.63147e-15 0 -0.594111
bottom 0 0 0 0
frontAndBack 0 0 0 0
sum 1.8423e-07 -3.65014e-14 0 1.84229e-07


Wall heat fluxes [W]
topAndBottom 0 0 0 0
left 0.594112 0 0 0.594112
right -0.594111 0 0 -0.594111
frontAndBack 0 0 0 0
sum 1.23007e-07 0 0 1.23007e-07

Time = 991

DILUPBiCG:  Solving for Ux, Initial residual = 0.0159551, Final residual = 4.41771e-06, No Iterations 2
DILUPBiCG:  Solving for Uy, Initial residual = 0.0339997, Final residual = 1.33324e-05, No Iterations 2
DICPCG:  Solving for p_rgh, Initial residual = 7.74646e-08, Final residual = 4.73659e-10, No Iterations 6
time step continuity errors : sum local = 1.26327e-09, global = -6.05629e-16, cumulative = -7.03602e-13
DILUPBiCG:  Solving for epsilon, Initial residual = 4.71322e-08, Final residual = 1.89523e-10, No Iterations 2
DILUPBiCG:  Solving for k, Initial residual = 8.73334e-08, Final residual = 2.4705e-11, No Iterations 3
Before T+T solve
BiCG:  Solving for T+T, Initial residual = 2.93803e-09, Final residual = 2.60052e-10, No Iterations 2
Tres = 1.8522e-07
TsRes = -1.38923e-07
ExecutionTime = 2.25 s



Wall heat fluxes [W]
movingWall 0 -3.05924e-14 0 -3.05924e-14
left 0.594111 6.38222e-15 0 0.594111
right -0.594111 -4.69624e-16 0 -0.594111
bottom 0 0 0 0
frontAndBack 0 0 0 0
sum 1.86015e-07 -2.46798e-14 0 1.86015e-07


Wall heat fluxes [W]
topAndBottom 0 0 0 0
left 0.594112 0 0 0.594112
right -0.594111 0 0 -0.594111
frontAndBack 0 0 0 0
sum 1.25367e-07 0 0 1.25367e-07

Time = 992

DILUPBiCG:  Solving for Ux, Initial residual = 0.0159551, Final residual = 4.41771e-06, No Iterations 2
DILUPBiCG:  Solving for Uy, Initial residual = 0.0339997, Final residual = 1.33324e-05, No Iterations 2
DICPCG:  Solving for p_rgh, Initial residual = 7.70265e-08, Final residual = 4.83279e-10, No Iterations 6
time step continuity errors : sum local = 1.2589e-09, global = -5.56924e-16, cumulative = -7.04159e-13
DILUPBiCG:  Solving for epsilon, Initial residual = 4.63141e-08, Final residual = 1.89036e-10, No Iterations 2
DILUPBiCG:  Solving for k, Initial residual = 8.56565e-08, Final residual = 2.44551e-11, No Iterations 3
Before T+T solve
BiCG:  Solving for T+T, Initial residual = 2.85543e-09, Final residual = 2.66221e-10, No Iterations 2
Tres = 1.8703e-07
TsRes = -1.4322e-07
ExecutionTime = 2.25 s



Wall heat fluxes [W]
movingWall 0 -3.05924e-14 0 -3.05924e-14
left 0.594111 3.05237e-15 0 0.594111
right -0.594111 1.87624e-15 0 -0.594111
bottom 0 0 0 0
frontAndBack 0 0 0 0
sum 1.87843e-07 -2.56638e-14 0 1.87843e-07


Wall heat fluxes [W]
topAndBottom 0 0 0 0
left 0.594111 0 0 0.594111
right -0.594111 0 0 -0.594111
frontAndBack 0 0 0 0
sum 1.27002e-07 0 0 1.27002e-07

Time = 993

DILUPBiCG:  Solving for Ux, Initial residual = 0.0159551, Final residual = 4.41771e-06, No Iterations 2
DILUPBiCG:  Solving for Uy, Initial residual = 0.0339997, Final residual = 1.33324e-05, No Iterations 2
DICPCG:  Solving for p_rgh, Initial residual = 7.60722e-08, Final residual = 4.93243e-10, No Iterations 6
time step continuity errors : sum local = 1.41631e-09, global = -7.68682e-16, cumulative = -7.04928e-13
DILUPBiCG:  Solving for epsilon, Initial residual = 4.5351e-08, Final residual = 1.87914e-10, No Iterations 2
DILUPBiCG:  Solving for k, Initial residual = 8.37452e-08, Final residual = 2.42172e-11, No Iterations 3
Before T+T solve
BiCG:  Solving for T+T, Initial residual = 2.77337e-09, Final residual = 2.70867e-10, No Iterations 2
Tres = 1.8886e-07
TsRes = -1.46771e-07
ExecutionTime = 2.26 s



Wall heat fluxes [W]
movingWall 0 -3.05924e-14 0 -3.05924e-14
left 0.594111 -8.32464e-16 0 0.594111
right -0.594111 -1.39021e-18 0 -0.594111
bottom 0 0 0 0
frontAndBack 0 0 0 0
sum 1.89688e-07 -3.14263e-14 0 1.89688e-07


Wall heat fluxes [W]
topAndBottom 0 0 0 0
left 0.594111 0 0 0.594111
right -0.594111 0 0 -0.594111
frontAndBack 0 0 0 0
sum 1.28324e-07 0 0 1.28324e-07

Time = 994

DILUPBiCG:  Solving for Ux, Initial residual = 0.0159551, Final residual = 4.41771e-06, No Iterations 2
DILUPBiCG:  Solving for Uy, Initial residual = 0.0339997, Final residual = 1.33324e-05, No Iterations 2
DICPCG:  Solving for p_rgh, Initial residual = 7.47103e-08, Final residual = 5.34587e-10, No Iterations 6
time step continuity errors : sum local = 1.73184e-09, global = -7.4433e-16, cumulative = -7.05672e-13
DILUPBiCG:  Solving for epsilon, Initial residual = 4.42511e-08, Final residual = 1.86721e-10, No Iterations 2
DILUPBiCG:  Solving for k, Initial residual = 8.18371e-08, Final residual = 2.39442e-11, No Iterations 3
Before T+T solve
BiCG:  Solving for T+T, Initial residual = 2.6859e-09, Final residual = 1.72798e-10, No Iterations 3
Tres = 1.88094e-07
TsRes = -1.24795e-07
ExecutionTime = 2.26 s



Wall heat fluxes [W]
movingWall 0 -3.05924e-14 0 -3.05924e-14
left 0.594111 -3.05237e-15 0 0.594111
right -0.594111 5.62971e-15 0 -0.594111
bottom 0 0 0 0
frontAndBack 0 0 0 0
sum 1.91431e-07 -2.80151e-14 0 1.91431e-07


Wall heat fluxes [W]
topAndBottom 0 0 0 0
left 0.594112 0 0 0.594112
right -0.594111 0 0 -0.594111
frontAndBack 0 0 0 0
sum 9.8443e-07 0 0 9.8443e-07

Time = 995

DILUPBiCG:  Solving for Ux, Initial residual = 0.0159551, Final residual = 4.41771e-06, No Iterations 2
DILUPBiCG:  Solving for Uy, Initial residual = 0.0339997, Final residual = 1.33324e-05, No Iterations 2
DICPCG:  Solving for p_rgh, Initial residual = 7.20516e-08, Final residual = 6.06733e-10, No Iterations 6
time step continuity errors : sum local = 2.12984e-09, global = -7.39036e-16, cumulative = -7.06411e-13
DILUPBiCG:  Solving for epsilon, Initial residual = 4.30155e-08, Final residual = 1.84978e-10, No Iterations 2
DILUPBiCG:  Solving for k, Initial residual = 8.02186e-08, Final residual = 2.36129e-11, No Iterations 3
Before T+T solve
BiCG:  Solving for T+T, Initial residual = 2.54033e-09, Final residual = 1.8396e-10, No Iterations 2
Tres = 1.90404e-07
TsRes = -1.27709e-07
ExecutionTime = 2.26 s



Wall heat fluxes [W]
movingWall 0 -3.05924e-14 0 -3.05924e-14
left 0.594111 0 0 0.594111
right -0.594111 -4.70786e-16 0 -0.594111
bottom 0 0 0 0
frontAndBack 0 0 0 0
sum 1.90836e-07 -3.10632e-14 0 1.90836e-07


Wall heat fluxes [W]
topAndBottom 0 0 0 0
left 0.594111 0 0 0.594111
right -0.594111 0 0 -0.594111
frontAndBack 0 0 0 0
sum 1.58416e-08 0 0 1.58416e-08

Time = 996

DILUPBiCG:  Solving for Ux, Initial residual = 0.0159551, Final residual = 4.41771e-06, No Iterations 2
DILUPBiCG:  Solving for Uy, Initial residual = 0.0339997, Final residual = 1.33324e-05, No Iterations 2
DICPCG:  Solving for p_rgh, Initial residual = 7.14312e-08, Final residual = 7.11938e-10, No Iterations 6
time step continuity errors : sum local = 2.597e-09, global = -9.09502e-16, cumulative = -7.07321e-13
DILUPBiCG:  Solving for epsilon, Initial residual = 4.22455e-08, Final residual = 1.82576e-10, No Iterations 2
DILUPBiCG:  Solving for k, Initial residual = 7.86955e-08, Final residual = 2.32233e-11, No Iterations 3
Before T+T solve
BiCG:  Solving for T+T, Initial residual = 2.46241e-09, Final residual = 2.32473e-10, No Iterations 2
Tres = 1.92222e-07
TsRes = -1.2961e-07
ExecutionTime = 2.26 s



Wall heat fluxes [W]
movingWall 0 -3.05924e-14 0 -3.05924e-14
left 0.594111 -4.16232e-15 0 0.594111
right -0.594111 -1.87897e-15 0 -0.594111
bottom 0 0 0 0
frontAndBack 0 0 0 0
sum 1.93021e-07 -3.66337e-14 0 1.93021e-07


Wall heat fluxes [W]
topAndBottom 0 0 0 0
left 0.594111 0 0 0.594111
right -0.594111 0 0 -0.594111
frontAndBack 0 0 0 0
sum 1.36033e-07 0 0 1.36033e-07

Time = 997

DILUPBiCG:  Solving for Ux, Initial residual = 0.0159551, Final residual = 4.41771e-06, No Iterations 2
DILUPBiCG:  Solving for Uy, Initial residual = 0.0339997, Final residual = 1.33324e-05, No Iterations 2
DICPCG:  Solving for p_rgh, Initial residual = 6.99653e-08, Final residual = 4.90619e-10, No Iterations 12
time step continuity errors : sum local = 1.25363e-09, global = -5.18808e-16, cumulative = -7.0784e-13
DILUPBiCG:  Solving for epsilon, Initial residual = 4.1345e-08, Final residual = 1.79454e-10, No Iterations 2
DILUPBiCG:  Solving for k, Initial residual = 7.70488e-08, Final residual = 2.27426e-11, No Iterations 3
Before T+T solve
BiCG:  Solving for T+T, Initial residual = 2.35759e-09, Final residual = 2.29388e-10, No Iterations 2
Tres = 1.94004e-07
TsRes = -1.3155e-07
ExecutionTime = 2.26 s



Wall heat fluxes [W]
movingWall 0 -3.05924e-14 0 -3.05924e-14
left 0.594111 1.10995e-15 0 0.594111
right -0.594111 5.15805e-15 0 -0.594111
bottom 0 0 0 0
frontAndBack 0 0 0 0
sum 1.94693e-07 -2.43244e-14 0 1.94693e-07


Wall heat fluxes [W]
topAndBottom 0 0 0 0
left 0.594111 0 0 0.594111
right -0.594111 0 0 -0.594111
frontAndBack 0 0 0 0
sum 9.75132e-08 0 0 9.75132e-08

Time = 998

DILUPBiCG:  Solving for Ux, Initial residual = 0.0159551, Final residual = 4.41771e-06, No Iterations 2
DILUPBiCG:  Solving for Uy, Initial residual = 0.0339997, Final residual = 1.33324e-05, No Iterations 2
DICPCG:  Solving for p_rgh, Initial residual = 6.84467e-08, Final residual = 5.06471e-10, No Iterations 6
time step continuity errors : sum local = 1.32357e-09, global = -5.88688e-16, cumulative = -7.08428e-13
DILUPBiCG:  Solving for epsilon, Initial residual = 4.05005e-08, Final residual = 1.75804e-10, No Iterations 2
DILUPBiCG:  Solving for k, Initial residual = 7.52302e-08, Final residual = 2.27157e-11, No Iterations 3
Before T+T solve
BiCG:  Solving for T+T, Initial residual = 2.2549e-09, Final residual = 1.43569e-10, No Iterations 3
Tres = 1.93433e-07
TsRes = -1.10212e-07
ExecutionTime = 2.27 s



Wall heat fluxes [W]
movingWall 0 -3.05924e-14 0 -3.05924e-14
left 0.594111 3.88483e-15 0 0.594111
right -0.594111 1.87707e-15 0 -0.594111
bottom 0 0 0 0
frontAndBack 0 0 0 0
sum 1.96325e-07 -2.48305e-14 0 1.96325e-07


Wall heat fluxes [W]
topAndBottom 0 0 0 0
left 0.594112 0 0 0.594112
right -0.594111 0 0 -0.594111
frontAndBack 0 0 0 0
sum 8.51008e-07 0 0 8.51008e-07

Time = 999

DILUPBiCG:  Solving for Ux, Initial residual = 0.0159551, Final residual = 4.41771e-06, No Iterations 2
DILUPBiCG:  Solving for Uy, Initial residual = 0.0339997, Final residual = 1.33324e-05, No Iterations 2
DICPCG:  Solving for p_rgh, Initial residual = 6.53572e-08, Final residual = 5.07318e-10, No Iterations 6
time step continuity errors : sum local = 1.44713e-09, global = -7.22096e-16, cumulative = -7.09151e-13
DILUPBiCG:  Solving for epsilon, Initial residual = 3.95288e-08, Final residual = 1.71766e-10, No Iterations 2
DILUPBiCG:  Solving for k, Initial residual = 7.34355e-08, Final residual = 6.52576e-10, No Iterations 2
Before T+T solve
BiCG:  Solving for T+T, Initial residual = 2.106e-09, Final residual = 1.59864e-10, No Iterations 2
Tres = 1.95558e-07
TsRes = -1.12208e-07
ExecutionTime = 2.27 s



Wall heat fluxes [W]
movingWall 0 -3.05924e-14 0 -3.05924e-14
left 0.594111 -1.94242e-15 0 0.594111
right -0.594111 -1.44504e-19 0 -0.594111
bottom 0 0 0 0
frontAndBack 0 0 0 0
sum 1.95923e-07 -3.2535e-14 0 1.95923e-07


Wall heat fluxes [W]
topAndBottom 0 0 0 0
left 0.594111 0 0 0.594111
right -0.594111 0 0 -0.594111
frontAndBack 0 0 0 0
sum 9.18952e-09 0 0 9.18952e-09

Time = 1000

DILUPBiCG:  Solving for Ux, Initial residual = 0.0159551, Final residual = 4.4177e-06, No Iterations 2
DILUPBiCG:  Solving for Uy, Initial residual = 0.0339997, Final residual = 1.33324e-05, No Iterations 2
DICPCG:  Solving for p_rgh, Initial residual = 6.39596e-08, Final residual = 5.10256e-10, No Iterations 6
time step continuity errors : sum local = 1.40183e-09, global = -8.27975e-16, cumulative = -7.09978e-13
DILUPBiCG:  Solving for epsilon, Initial residual = 3.87096e-08, Final residual = 1.67122e-10, No Iterations 2
DILUPBiCG:  Solving for k, Initial residual = 7.14896e-08, Final residual = 5.58622e-10, No Iterations 2
Before T+T solve
BiCG:  Solving for T+T, Initial residual = 2.04398e-09, Final residual = 1.97223e-10, No Iterations 2
Tres = 1.97083e-07
TsRes = -1.1317e-07
ExecutionTime = 2.27 s



Wall heat fluxes [W]
movingWall 0 -3.05924e-14 0 -3.05924e-14
left 0.594111 -2.77488e-15 0 0.594111
right -0.594111 1.24656e-18 0 -0.594111
bottom 0 0 0 0
frontAndBack 0 0 0 0
sum 1.9775e-07 -3.3366e-14 0 1.9775e-07


Wall heat fluxes [W]
topAndBottom 0 0 0 0
left 0.594111 0 0 0.594111
right -0.594111 0 0 -0.594111
frontAndBack 0 0 0 0
sum 1.08673e-07 0 0 1.08673e-07

End

