/*---------------------------------------------------------------------------*\
| =========                 |                                                 |
| \\      /  F ield         | OpenFOAM Extend Project: Open source CFD        |
|  \\    /   O peration     | Version:  1.6-ext                               |
|   \\  /    A nd           | Web:      www.extend-project.de                 |
|    \\/     M anipulation  |                                                 |
\*---------------------------------------------------------------------------*/
Build  : 1.6-ext-62b0c9cdf665
Exec   : chipAirCoolingSimpleFoam
Date   : Oct 21 2011
Time   : 15:50:37
Host   : galerius
PID    : 3760
Case   : /home/henrus/projects/ChipAirCooling/run/tutorial1_twisted/conjugateContactCavity
nProcs : 1
SigFpe : Enabling floating point exception trapping (FOAM_SIGFPE).

// * * * * * * * * * * * * * * * * * * * * * * * * * * * * * * * * * * * * * //
Create time

Create mesh for time = 0


Reading g
Reading transportProperties

Calculating field g.h

Reading field p_rgh

Reading field U

Reading field T

Reading/calculating face flux field phi

Selecting incompressible transport model Newtonian
Selecting RAS turbulence model kEpsilon
kEpsilonCoeffs
{
    Cmu             0.09;
    C1              1.44;
    C2              1.92;
    alphaEps        0.76923;
    sigmaEps        1.3;
}

Reading field kappaEff

Creating radiation model

Selecting radiationModel none
Reading field Tsolid

Reading solid thermal properties
Selecting thermal model multiMaterialZones
Selecting thermal model constant
Selecting thermal model constant
Selecting thermal gap model constant
Reading solid diffusivity k


Starting time loop

--> FOAM Warning : 
    From function dlLibraryTable::open(const dictionary& dict, const word& libsEntry, const TablePtr tablePtr)
    in file lnInclude/dlLibraryTableTemplates.C at line 68
    library "libairbusMaterialModels.so" did not introduce any new entries

Time = 1

DILUPBiCG:  Solving for Ux, Initial residual = 1, Final residual = 0.000152841, No Iterations 2
DILUPBiCG:  Solving for Uy, Initial residual = 1, Final residual = 0.000194188, No Iterations 2
DICPCG:  Solving for p_rgh, Initial residual = 1, Final residual = 0.0050603, No Iterations 10
time step continuity errors : sum local = 0.0010004, global = -7.125e-16, cumulative = -7.125e-16
DILUPBiCG:  Solving for epsilon, Initial residual = 0.0781355, Final residual = 0.000143488, No Iterations 2
DILUPBiCG:  Solving for k, Initial residual = 1, Final residual = 0.00249595, No Iterations 2
Before T+T solve
BiCG:  Solving for T+T, Initial residual = 0.309594, Final residual = 0.0275215, No Iterations 3
Tres = -1.47703
TsRes = -17.0541
ExecutionTime = 0.01 s



Wall heat fluxes [W]
movingWall 0 -2.73341e-14 0 -2.73341e-14
left 5.6593e-08 0 0 5.6593e-08
right -1.47703 0 0 -1.47703
bottom 0 0 0 0
frontAndBack 0 0 0 0
sum -1.47703 -2.73341e-14 0 -1.47703


Wall heat fluxes [W]
topAndBottom 0 0 0 0
left 1.48106 0 0 1.48106
right -18.5351 0 0 -18.5351
frontAndBack 0 0 0 0
sum -17.0541 0 0 -17.0541

Time = 2

DILUPBiCG:  Solving for Ux, Initial residual = 0.883487, Final residual = 0.00790408, No Iterations 1
DILUPBiCG:  Solving for Uy, Initial residual = 0.608749, Final residual = 0.00585657, No Iterations 1
DICPCG:  Solving for p_rgh, Initial residual = 0.843746, Final residual = 0.0052188, No Iterations 12
time step continuity errors : sum local = 0.0172832, global = -3.16843e-16, cumulative = -1.02934e-15
DILUPBiCG:  Solving for epsilon, Initial residual = 0.0192544, Final residual = 2.6959e-05, No Iterations 2
DILUPBiCG:  Solving for k, Initial residual = 0.645686, Final residual = 0.000980946, No Iterations 2
Before T+T solve
BiCG:  Solving for T+T, Initial residual = 0.0318962, Final residual = 0.00120106, No Iterations 5
Tres = -1.16365
TsRes = -6.25856
ExecutionTime = 0.02 s



Wall heat fluxes [W]
movingWall 0 -2.66577e-14 0 -2.66577e-14
left 4.05866e-07 1.98475e-22 0 4.05866e-07
right -1.16365 1.72183e-14 0 -1.16365
bottom 0 0 0 0
frontAndBack 0 0 0 0
sum -1.16365 -9.43938e-15 0 -1.16365


Wall heat fluxes [W]
topAndBottom 0 0 0 0
left 1.07102 0 0 1.07102
right -7.32958 0 0 -7.32958
frontAndBack 0 0 0 0
sum -6.25856 0 0 -6.25856

Time = 3

DILUPBiCG:  Solving for Ux, Initial residual = 0.354578, Final residual = 0.00329674, No Iterations 1
DILUPBiCG:  Solving for Uy, Initial residual = 0.239482, Final residual = 0.00215291, No Iterations 1
DICPCG:  Solving for p_rgh, Initial residual = 0.343419, Final residual = 0.0027955, No Iterations 11
time step continuity errors : sum local = 0.00721113, global = -6.45466e-16, cumulative = -1.67481e-15
DILUPBiCG:  Solving for epsilon, Initial residual = 0.0600328, Final residual = 4.07202e-05, No Iterations 2
DILUPBiCG:  Solving for k, Initial residual = 0.223036, Final residual = 0.000338065, No Iterations 2
Before T+T solve
BiCG:  Solving for T+T, Initial residual = 0.00876676, Final residual = 0.000619031, No Iterations 5
Tres = -1.21533
TsRes = -3.18515
ExecutionTime = 0.02 s



Wall heat fluxes [W]
movingWall 0 -2.64421e-14 0 -2.64421e-14
left 5.2772e-06 1.79951e-20 0 5.2772e-06
right -1.21534 2.36181e-15 0 -1.21534
bottom 0 0 0 0
frontAndBack 0 0 0 0
sum -1.21533 -2.40803e-14 0 -1.21533


Wall heat fluxes [W]
topAndBottom 0 0 0 0
left 1.67867 0 0 1.67867
right -4.86382 0 0 -4.86382
frontAndBack 0 0 0 0
sum -3.18515 0 0 -3.18515

Time = 4

DILUPBiCG:  Solving for Ux, Initial residual = 0.236004, Final residual = 0.00211381, No Iterations 1
DILUPBiCG:  Solving for Uy, Initial residual = 0.287376, Final residual = 0.00277806, No Iterations 1
DICPCG:  Solving for p_rgh, Initial residual = 0.150156, Final residual = 0.00126529, No Iterations 8
time step continuity errors : sum local = 0.00400701, global = -6.8297e-16, cumulative = -2.35778e-15
DILUPBiCG:  Solving for epsilon, Initial residual = 0.0757781, Final residual = 8.86938e-05, No Iterations 2
DILUPBiCG:  Solving for k, Initial residual = 0.130905, Final residual = 0.000213691, No Iterations 2
Before T+T solve
BiCG:  Solving for T+T, Initial residual = 0.00572943, Final residual = 0.000214882, No Iterations 5
Tres = -1.29697
TsRes = -2.18765
ExecutionTime = 0.02 s



Wall heat fluxes [W]
movingWall 0 -2.6243e-14 0 -2.6243e-14
left 2.26679e-05 -2.11707e-21 0 2.26679e-05
right -1.297 8.21586e-16 0 -1.297
bottom 0 0 0 0
frontAndBack 0 0 0 0
sum -1.29697 -2.54214e-14 0 -1.29697


Wall heat fluxes [W]
topAndBottom 0 0 0 0
left 1.64985 0 0 1.64985
right -3.8375 0 0 -3.8375
frontAndBack 0 0 0 0
sum -2.18765 0 0 -2.18765

Time = 5

DILUPBiCG:  Solving for Ux, Initial residual = 0.106725, Final residual = 0.000953203, No Iterations 1
DILUPBiCG:  Solving for Uy, Initial residual = 0.166997, Final residual = 0.00152919, No Iterations 1
DICPCG:  Solving for p_rgh, Initial residual = 0.130386, Final residual = 0.00087085, No Iterations 7
time step continuity errors : sum local = 0.00213406, global = -7.12566e-16, cumulative = -3.07035e-15
DILUPBiCG:  Solving for epsilon, Initial residual = 0.0729806, Final residual = 0.000126452, No Iterations 2
DILUPBiCG:  Solving for k, Initial residual = 0.0954134, Final residual = 0.00015364, No Iterations 2
Before T+T solve
BiCG:  Solving for T+T, Initial residual = 0.00453102, Final residual = 0.000183209, No Iterations 4
Tres = -1.36071
TsRes = -1.56336
ExecutionTime = 0.02 s



Wall heat fluxes [W]
movingWall 0 -2.61164e-14 0 -2.61164e-14
left 6.73267e-05 7.92841e-19 0 6.73267e-05
right -1.36077 -8.41643e-16 0 -1.36077
bottom 0 0 0 0
frontAndBack 0 0 0 0
sum -1.36071 -2.69573e-14 0 -1.36071


Wall heat fluxes [W]
topAndBottom 0 0 0 0
left 1.67697 0 0 1.67697
right -3.24032 0 0 -3.24032
frontAndBack 0 0 0 0
sum -1.56336 0 0 -1.56336

Time = 6

DILUPBiCG:  Solving for Ux, Initial residual = 0.0691394, Final residual = 0.000630747, No Iterations 1
DILUPBiCG:  Solving for Uy, Initial residual = 0.107422, Final residual = 0.000921567, No Iterations 1
DICPCG:  Solving for p_rgh, Initial residual = 0.126221, Final residual = 0.00101675, No Iterations 11
time step continuity errors : sum local = 0.00191304, global = -6.9417e-16, cumulative = -3.76452e-15
DILUPBiCG:  Solving for epsilon, Initial residual = 0.0561676, Final residual = 0.000122247, No Iterations 2
DILUPBiCG:  Solving for k, Initial residual = 0.0781185, Final residual = 0.000126171, No Iterations 2
Before T+T solve
BiCG:  Solving for T+T, Initial residual = 0.00389039, Final residual = 0.000354029, No Iterations 3
Tres = -1.42128
TsRes = -1.18264
ExecutionTime = 0.03 s



Wall heat fluxes [W]
movingWall 0 -2.60419e-14 0 -2.60419e-14
left 0.000195658 -4.65754e-19 0 0.000195658
right -1.42147 -7.20805e-19 0 -1.42147
bottom 0 0 0 0
frontAndBack 0 0 0 0
sum -1.42128 -2.60431e-14 0 -1.42128


Wall heat fluxes [W]
topAndBottom 0 0 0 0
left 1.6731 0 0 1.6731
right -2.85573 0 0 -2.85573
frontAndBack 0 0 0 0
sum -1.18264 0 0 -1.18264

Time = 7

DILUPBiCG:  Solving for Ux, Initial residual = 0.0543778, Final residual = 0.000494386, No Iterations 1
DILUPBiCG:  Solving for Uy, Initial residual = 0.0978873, Final residual = 0.000885228, No Iterations 1
DICPCG:  Solving for p_rgh, Initial residual = 0.121385, Final residual = 0.00111577, No Iterations 11
time step continuity errors : sum local = 0.00208905, global = -6.08739e-16, cumulative = -4.37325e-15
DILUPBiCG:  Solving for epsilon, Initial residual = 0.0448469, Final residual = 9.7019e-05, No Iterations 2
DILUPBiCG:  Solving for k, Initial residual = 0.0688847, Final residual = 0.00022946, No Iterations 2
Before T+T solve
BiCG:  Solving for T+T, Initial residual = 0.00352969, Final residual = 0.000131422, No Iterations 3
Tres = -1.47991
TsRes = -0.85871
ExecutionTime = 0.03 s



Wall heat fluxes [W]
movingWall 0 -2.60012e-14 0 -2.60012e-14
left 0.00042089 -6.09715e-19 0 0.00042089
right -1.48033 6.03366e-15 0 -1.48033
bottom 0 0 0 0
frontAndBack 0 0 0 0
sum -1.47991 -1.99682e-14 0 -1.47991


Wall heat fluxes [W]
topAndBottom 0 0 0 0
left 1.67894 0 0 1.67894
right -2.53765 0 0 -2.53765
frontAndBack 0 0 0 0
sum -0.85871 0 0 -0.85871

Time = 8

DILUPBiCG:  Solving for Ux, Initial residual = 0.0495653, Final residual = 0.000412781, No Iterations 1
DILUPBiCG:  Solving for Uy, Initial residual = 0.0941016, Final residual = 0.00086153, No Iterations 1
DICPCG:  Solving for p_rgh, Initial residual = 0.11916, Final residual = 0.000361055, No Iterations 11
time step continuity errors : sum local = 0.00060744, global = -6.18843e-16, cumulative = -4.9921e-15
DILUPBiCG:  Solving for epsilon, Initial residual = 0.0379633, Final residual = 6.4905e-05, No Iterations 2
DILUPBiCG:  Solving for k, Initial residual = 0.0628181, Final residual = 0.000287958, No Iterations 2
Before T+T solve
BiCG:  Solving for T+T, Initial residual = 0.0031553, Final residual = 0.000193591, No Iterations 3
Tres = -1.54013
TsRes = -0.630481
ExecutionTime = 0.03 s



Wall heat fluxes [W]
movingWall 0 -2.59796e-14 0 -2.59796e-14
left 0.000783564 8.12953e-19 0 0.000783564
right -1.54092 3.46597e-15 0 -1.54092
bottom 0 0 0 0
frontAndBack 0 0 0 0
sum -1.54013 -2.25128e-14 0 -1.54013


Wall heat fluxes [W]
topAndBottom 0 0 0 0
left 1.69049 0 0 1.69049
right -2.32097 0 0 -2.32097
frontAndBack 0 0 0 0
sum -0.630481 0 0 -0.630481

Time = 9

DILUPBiCG:  Solving for Ux, Initial residual = 0.0453924, Final residual = 0.000393757, No Iterations 1
DILUPBiCG:  Solving for Uy, Initial residual = 0.0862219, Final residual = 0.000780061, No Iterations 1
DICPCG:  Solving for p_rgh, Initial residual = 0.123147, Final residual = 0.00105086, No Iterations 11
time step continuity errors : sum local = 0.00180193, global = -9.11884e-16, cumulative = -5.90398e-15
DILUPBiCG:  Solving for epsilon, Initial residual = 0.0329921, Final residual = 5.68742e-05, No Iterations 2
DILUPBiCG:  Solving for k, Initial residual = 0.0590738, Final residual = 0.00039311, No Iterations 2
Before T+T solve
BiCG:  Solving for T+T, Initial residual = 0.00298767, Final residual = 0.000118721, No Iterations 3
Tres = -1.60013
TsRes = -0.441392
ExecutionTime = 0.03 s



Wall heat fluxes [W]
movingWall 0 -2.59679e-14 0 -2.59679e-14
left 0.00131452 1.653e-17 0 0.00131452
right -1.60145 -7.90992e-15 0 -1.60145
bottom 0 0 0 0
frontAndBack 0 0 0 0
sum -1.60013 -3.38613e-14 0 -1.60013


Wall heat fluxes [W]
topAndBottom 0 0 0 0
left 1.71411 0 0 1.71411
right -2.1555 0 0 -2.1555
frontAndBack 0 0 0 0
sum -0.441392 0 0 -0.441392

Time = 10

DILUPBiCG:  Solving for Ux, Initial residual = 0.0397117, Final residual = 0.000383653, No Iterations 1
DILUPBiCG:  Solving for Uy, Initial residual = 0.0777566, Final residual = 0.000694849, No Iterations 1
DICPCG:  Solving for p_rgh, Initial residual = 0.133761, Final residual = 0.00130188, No Iterations 11
time step continuity errors : sum local = 0.00209497, global = -6.69032e-16, cumulative = -6.57301e-15
DILUPBiCG:  Solving for epsilon, Initial residual = 0.0284882, Final residual = 5.24604e-05, No Iterations 2
DILUPBiCG:  Solving for k, Initial residual = 0.0563703, Final residual = 0.000485872, No Iterations 2
Before T+T solve
BiCG:  Solving for T+T, Initial residual = 0.00281551, Final residual = 0.000132986, No Iterations 3
Tres = -1.65372
TsRes = -0.309087
ExecutionTime = 0.03 s



Wall heat fluxes [W]
movingWall 0 -2.59583e-14 0 -2.59583e-14
left 0.00205318 1.32782e-17 0 0.00205318
right -1.65578 2.16736e-15 0 -1.65578
bottom 0 0 0 0
frontAndBack 0 0 0 0
sum -1.65372 -2.37776e-14 0 -1.65372


Wall heat fluxes [W]
topAndBottom 0 0 0 0
left 1.73547 0 0 1.73547
right -2.04455 0 0 -2.04455
frontAndBack 0 0 0 0
sum -0.309087 0 0 -0.309087

Time = 11

DILUPBiCG:  Solving for Ux, Initial residual = 0.0356774, Final residual = 4.2224e-06, No Iterations 2
DILUPBiCG:  Solving for Uy, Initial residual = 0.0716316, Final residual = 0.000638578, No Iterations 1
DICPCG:  Solving for p_rgh, Initial residual = 0.132405, Final residual = 0.00132301, No Iterations 11
time step continuity errors : sum local = 0.00209776, global = -7.56953e-16, cumulative = -7.32997e-15
DILUPBiCG:  Solving for epsilon, Initial residual = 0.0250224, Final residual = 5.00306e-05, No Iterations 2
DILUPBiCG:  Solving for k, Initial residual = 0.0542907, Final residual = 5.8455e-06, No Iterations 3
Before T+T solve
BiCG:  Solving for T+T, Initial residual = 0.00275571, Final residual = 8.7984e-05, No Iterations 3
Tres = -1.6959
TsRes = -0.209183
ExecutionTime = 0.03 s



Wall heat fluxes [W]
movingWall 0 -2.59504e-14 0 -2.59504e-14
left 0.0030167 -4.93192e-17 0 0.0030167
right -1.69891 8.3822e-19 0 -1.69891
bottom 0 0 0 0
frontAndBack 0 0 0 0
sum -1.6959 -2.59989e-14 0 -1.6959


Wall heat fluxes [W]
topAndBottom 0 0 0 0
left 1.75596 0 0 1.75596
right -1.96514 0 0 -1.96514
frontAndBack 0 0 0 0
sum -0.209183 0 0 -0.209183

Time = 12

DILUPBiCG:  Solving for Ux, Initial residual = 0.0322159, Final residual = 3.44027e-06, No Iterations 2
DILUPBiCG:  Solving for Uy, Initial residual = 0.0679239, Final residual = 0.000603701, No Iterations 1
DICPCG:  Solving for p_rgh, Initial residual = 0.116391, Final residual = 0.000525981, No Iterations 12
time step continuity errors : sum local = 0.000806608, global = -6.07647e-16, cumulative = -7.93761e-15
DILUPBiCG:  Solving for epsilon, Initial residual = 0.022202, Final residual = 4.9085e-05, No Iterations 2
DILUPBiCG:  Solving for k, Initial residual = 0.0519852, Final residual = 7.31091e-06, No Iterations 3
Before T+T solve
BiCG:  Solving for T+T, Initial residual = 0.00271358, Final residual = 9.93423e-05, No Iterations 3
Tres = -1.72995
TsRes = -0.141259
ExecutionTime = 0.04 s



Wall heat fluxes [W]
movingWall 0 -2.59427e-14 0 -2.59427e-14
left 0.00422294 3.25181e-18 0 0.00422294
right -1.73418 4.41042e-15 0 -1.73418
bottom 0 0 0 0
frontAndBack 0 0 0 0
sum -1.72995 -2.1529e-14 0 -1.72995


Wall heat fluxes [W]
topAndBottom 0 0 0 0
left 1.77247 0 0 1.77247
right -1.91373 0 0 -1.91373
frontAndBack 0 0 0 0
sum -0.141259 0 0 -0.141259

Time = 13

DILUPBiCG:  Solving for Ux, Initial residual = 0.029353, Final residual = 3.29281e-06, No Iterations 2
DILUPBiCG:  Solving for Uy, Initial residual = 0.064906, Final residual = 0.000569829, No Iterations 1
DICPCG:  Solving for p_rgh, Initial residual = 0.106786, Final residual = 0.000376463, No Iterations 12
time step continuity errors : sum local = 0.000601878, global = -7.67954e-16, cumulative = -8.70557e-15
DILUPBiCG:  Solving for epsilon, Initial residual = 0.0201328, Final residual = 5.00246e-05, No Iterations 2
DILUPBiCG:  Solving for k, Initial residual = 0.0498044, Final residual = 0.000253668, No Iterations 2
Before T+T solve
BiCG:  Solving for T+T, Initial residual = 0.00273507, Final residual = 0.000188207, No Iterations 2
Tres = -1.75127
TsRes = -0.123146
ExecutionTime = 0.04 s



Wall heat fluxes [W]
movingWall 0 -2.59313e-14 0 -2.59313e-14
left 0.00562542 2.38466e-17 0 0.00562542
right -1.75689 -3.97045e-15 0 -1.75689
bottom 0 0 0 0
frontAndBack 0 0 0 0
sum -1.75127 -2.98779e-14 0 -1.75127


Wall heat fluxes [W]
topAndBottom 0 0 0 0
left 1.78253 0 0 1.78253
right -1.90568 0 0 -1.90568
frontAndBack 0 0 0 0
sum -0.123146 0 0 -0.123146

Time = 14

DILUPBiCG:  Solving for Ux, Initial residual = 0.0271061, Final residual = 3.35435e-06, No Iterations 2
DILUPBiCG:  Solving for Uy, Initial residual = 0.0623067, Final residual = 0.000536517, No Iterations 1
DICPCG:  Solving for p_rgh, Initial residual = 0.100417, Final residual = 0.000287361, No Iterations 12
time step continuity errors : sum local = 0.000474218, global = -5.92989e-16, cumulative = -9.29856e-15
DILUPBiCG:  Solving for epsilon, Initial residual = 0.0186118, Final residual = 5.30888e-05, No Iterations 2
DILUPBiCG:  Solving for k, Initial residual = 0.048327, Final residual = 0.000212645, No Iterations 2
Before T+T solve
BiCG:  Solving for T+T, Initial residual = 0.00282996, Final residual = 0.000274491, No Iterations 1
Tres = -1.7709
TsRes = -0.120789
ExecutionTime = 0.04 s



Wall heat fluxes [W]
movingWall 0 -2.59179e-14 0 -2.59179e-14
left 0.00704008 1.51751e-17 0 0.00704008
right -1.77794 5.3083e-15 0 -1.77794
bottom 0 0 0 0
frontAndBack 0 0 0 0
sum -1.7709 -2.05945e-14 0 -1.7709


Wall heat fluxes [W]
topAndBottom 0 0 0 0
left 1.78159 0 0 1.78159
right -1.90238 0 0 -1.90238
frontAndBack 0 0 0 0
sum -0.120789 0 0 -0.120789

Time = 15

DILUPBiCG:  Solving for Ux, Initial residual = 0.0267702, Final residual = 3.64092e-06, No Iterations 2
DILUPBiCG:  Solving for Uy, Initial residual = 0.0605119, Final residual = 0.000511437, No Iterations 1
DICPCG:  Solving for p_rgh, Initial residual = 0.108999, Final residual = 0.000980035, No Iterations 11
time step continuity errors : sum local = 0.00174158, global = -8.92685e-16, cumulative = -1.01912e-14
DILUPBiCG:  Solving for epsilon, Initial residual = 0.0176129, Final residual = 5.7868e-05, No Iterations 2
DILUPBiCG:  Solving for k, Initial residual = 0.0474769, Final residual = 0.000224805, No Iterations 2
Before T+T solve
BiCG:  Solving for T+T, Initial residual = 0.00296271, Final residual = 0.000260629, No Iterations 1
Tres = -1.78835
TsRes = -0.10062
ExecutionTime = 0.04 s



Wall heat fluxes [W]
movingWall 0 -2.59063e-14 0 -2.59063e-14
left 0.0086458 -8.23792e-17 0 0.0086458
right -1.797 -9.51901e-15 0 -1.797
bottom 0 0 0 0
frontAndBack 0 0 0 0
sum -1.78835 -3.55077e-14 0 -1.78835


Wall heat fluxes [W]
topAndBottom 0 0 0 0
left 1.79856 0 0 1.79856
right -1.89918 0 0 -1.89918
frontAndBack 0 0 0 0
sum -0.10062 0 0 -0.10062

Time = 16

DILUPBiCG:  Solving for Ux, Initial residual = 0.0268174, Final residual = 4.29907e-06, No Iterations 2
DILUPBiCG:  Solving for Uy, Initial residual = 0.0597942, Final residual = 0.000507136, No Iterations 1
DICPCG:  Solving for p_rgh, Initial residual = 0.11586, Final residual = 0.000718626, No Iterations 11
time step continuity errors : sum local = 0.00143714, global = -7.42477e-16, cumulative = -1.09337e-14
DILUPBiCG:  Solving for epsilon, Initial residual = 0.0166426, Final residual = 6.29545e-05, No Iterations 2
DILUPBiCG:  Solving for k, Initial residual = 0.0464374, Final residual = 0.000210204, No Iterations 2
Before T+T solve
BiCG:  Solving for T+T, Initial residual = 0.00307106, Final residual = 0.000246237, No Iterations 1
Tres = -1.80522
TsRes = -0.0794277
ExecutionTime = 0.05 s



Wall heat fluxes [W]
movingWall 0 -2.58969e-14 0 -2.58969e-14
left 0.0108926 -5.2029e-17 0 0.0108926
right -1.81611 -2.44678e-15 0 -1.81611
bottom 0 0 0 0
frontAndBack 0 0 0 0
sum -1.80522 -2.83957e-14 0 -1.80522


Wall heat fluxes [W]
topAndBottom 0 0 0 0
left 1.81668 0 0 1.81668
right -1.89611 0 0 -1.89611
frontAndBack 0 0 0 0
sum -0.0794277 0 0 -0.0794277

Time = 17

DILUPBiCG:  Solving for Ux, Initial residual = 0.0273552, Final residual = 6.05492e-06, No Iterations 2
DILUPBiCG:  Solving for Uy, Initial residual = 0.0593306, Final residual = 0.00050864, No Iterations 1
DICPCG:  Solving for p_rgh, Initial residual = 0.118999, Final residual = 0.000601094, No Iterations 11
time step continuity errors : sum local = 0.00128769, global = -6.42951e-16, cumulative = -1.15767e-14
DILUPBiCG:  Solving for epsilon, Initial residual = 0.0161149, Final residual = 6.97945e-05, No Iterations 2
DILUPBiCG:  Solving for k, Initial residual = 0.0453532, Final residual = 0.000218899, No Iterations 2
Before T+T solve
BiCG:  Solving for T+T, Initial residual = 0.00317566, Final residual = 0.000233437, No Iterations 1
Tres = -1.82408
TsRes = -0.0553649
ExecutionTime = 0.05 s



Wall heat fluxes [W]
movingWall 0 -2.58905e-14 0 -2.58905e-14
left 0.0136771 9.53865e-17 0 0.0136771
right -1.83776 1.31044e-15 0 -1.83776
bottom 0 0 0 0
frontAndBack 0 0 0 0
sum -1.82408 -2.44847e-14 0 -1.82408


Wall heat fluxes [W]
topAndBottom 0 0 0 0
left 1.83782 0 0 1.83782
right -1.89318 0 0 -1.89318
frontAndBack 0 0 0 0
sum -0.0553649 0 0 -0.0553649

Time = 18

DILUPBiCG:  Solving for Ux, Initial residual = 0.028373, Final residual = 8.73191e-06, No Iterations 2
DILUPBiCG:  Solving for Uy, Initial residual = 0.0587822, Final residual = 0.000505719, No Iterations 1
DICPCG:  Solving for p_rgh, Initial residual = 0.114293, Final residual = 0.00114126, No Iterations 10
time step continuity errors : sum local = 0.00252052, global = -8.51003e-16, cumulative = -1.24277e-14
DILUPBiCG:  Solving for epsilon, Initial residual = 0.0159652, Final residual = 7.85654e-05, No Iterations 2
DILUPBiCG:  Solving for k, Initial residual = 0.0439037, Final residual = 0.000235585, No Iterations 2
Before T+T solve
BiCG:  Solving for T+T, Initial residual = 0.00327506, Final residual = 0.000227386, No Iterations 1
Tres = -1.83953
TsRes = -0.0343059
ExecutionTime = 0.05 s



Wall heat fluxes [W]
movingWall 0 -2.58879e-14 0 -2.58879e-14
left 0.0170724 -2.16787e-16 0 0.0170724
right -1.8566 -4.43851e-15 0 -1.8566
bottom 0 0 0 0
frontAndBack 0 0 0 0
sum -1.83953 -3.05432e-14 0 -1.83953


Wall heat fluxes [W]
topAndBottom 0 0 0 0
left 1.85613 0 0 1.85613
right -1.89044 0 0 -1.89044
frontAndBack 0 0 0 0
sum -0.0343059 0 0 -0.0343059

Time = 19

DILUPBiCG:  Solving for Ux, Initial residual = 0.0294876, Final residual = 1.16242e-05, No Iterations 2
DILUPBiCG:  Solving for Uy, Initial residual = 0.0579154, Final residual = 0.000498673, No Iterations 1
DICPCG:  Solving for p_rgh, Initial residual = 0.103092, Final residual = 0.000313899, No Iterations 11
time step continuity errors : sum local = 0.000728488, global = -6.54068e-16, cumulative = -1.30817e-14
DILUPBiCG:  Solving for epsilon, Initial residual = 0.0158907, Final residual = 8.87425e-05, No Iterations 2
DILUPBiCG:  Solving for k, Initial residual = 0.0428282, Final residual = 0.000254543, No Iterations 2
Before T+T solve
BiCG:  Solving for T+T, Initial residual = 0.00339623, Final residual = 0.00022754, No Iterations 1
Tres = -1.85122
TsRes = -0.0163162
ExecutionTime = 0.05 s



Wall heat fluxes [W]
movingWall 0 -2.58894e-14 0 -2.58894e-14
left 0.0210963 -1.21401e-16 0 0.0210963
right -1.87231 1.1131e-15 0 -1.87231
bottom 0 0 0 0
frontAndBack 0 0 0 0
sum -1.85122 -2.48977e-14 0 -1.85122


Wall heat fluxes [W]
topAndBottom 0 0 0 0
left 1.8716 0 0 1.8716
right -1.88792 0 0 -1.88792
frontAndBack 0 0 0 0
sum -0.0163162 0 0 -0.0163162

Time = 20

DILUPBiCG:  Solving for Ux, Initial residual = 0.0307449, Final residual = 1.37254e-05, No Iterations 2
DILUPBiCG:  Solving for Uy, Initial residual = 0.0569616, Final residual = 0.000530702, No Iterations 1
DICPCG:  Solving for p_rgh, Initial residual = 0.0889426, Final residual = 0.000302951, No Iterations 11
time step continuity errors : sum local = 0.000693706, global = -6.01261e-16, cumulative = -1.3683e-14
DILUPBiCG:  Solving for epsilon, Initial residual = 0.0160475, Final residual = 0.000101365, No Iterations 2
DILUPBiCG:  Solving for k, Initial residual = 0.0418529, Final residual = 0.000266012, No Iterations 2
Before T+T solve
BiCG:  Solving for T+T, Initial residual = 0.00349788, Final residual = 0.000234291, No Iterations 1
Tres = -1.85927
TsRes = -0.00146604
ExecutionTime = 0.05 s



Wall heat fluxes [W]
movingWall 0 -2.58958e-14 0 -2.58958e-14
left 0.0258084 1.04058e-16 0 0.0258084
right -1.88508 4.42149e-15 0 -1.88508
bottom 0 0 0 0
frontAndBack 0 0 0 0
sum -1.85927 -2.13702e-14 0 -1.85927


Wall heat fluxes [W]
topAndBottom 0 0 0 0
left 1.88421 0 0 1.88421
right -1.88567 0 0 -1.88567
frontAndBack 0 0 0 0
sum -0.00146604 0 0 -0.00146604

Time = 21

DILUPBiCG:  Solving for Ux, Initial residual = 0.0323143, Final residual = 1.35219e-05, No Iterations 2
DILUPBiCG:  Solving for Uy, Initial residual = 0.0558387, Final residual = 3.69291e-05, No Iterations 2
DICPCG:  Solving for p_rgh, Initial residual = 0.0849797, Final residual = 0.000729726, No Iterations 10
time step continuity errors : sum local = 0.0017919, global = -6.41627e-16, cumulative = -1.43246e-14
DILUPBiCG:  Solving for epsilon, Initial residual = 0.0162133, Final residual = 0.000121897, No Iterations 2
DILUPBiCG:  Solving for k, Initial residual = 0.0404874, Final residual = 0.00026662, No Iterations 2
Before T+T solve
BiCG:  Solving for T+T, Initial residual = 0.0035672, Final residual = 0.000238926, No Iterations 1
Tres = -1.86347
TsRes = 0.0101696
ExecutionTime = 0.06 s



Wall heat fluxes [W]
movingWall 0 -2.59078e-14 0 -2.59078e-14
left 0.031392 6.76377e-16 0 0.031392
right -1.89487 1.11305e-15 0 -1.89487
bottom 0 0 0 0
frontAndBack 0 0 0 0
sum -1.86347 -2.41184e-14 0 -1.86347


Wall heat fluxes [W]
topAndBottom 0 0 0 0
left 1.89391 0 0 1.89391
right -1.88374 0 0 -1.88374
frontAndBack 0 0 0 0
sum 0.0101696 0 0 0.0101696

Time = 22

DILUPBiCG:  Solving for Ux, Initial residual = 0.0340777, Final residual = 1.26334e-05, No Iterations 2
DILUPBiCG:  Solving for Uy, Initial residual = 0.0543368, Final residual = 5.93701e-05, No Iterations 2
DICPCG:  Solving for p_rgh, Initial residual = 0.0855282, Final residual = 0.000576958, No Iterations 10
time step continuity errors : sum local = 0.00148077, global = -6.45333e-16, cumulative = -1.497e-14
DILUPBiCG:  Solving for epsilon, Initial residual = 0.0162654, Final residual = 4.85691e-06, No Iterations 3
DILUPBiCG:  Solving for k, Initial residual = 0.039282, Final residual = 0.000253131, No Iterations 2
Before T+T solve
BiCG:  Solving for T+T, Initial residual = 0.00362059, Final residual = 0.000244224, No Iterations 1
Tres = -1.86351
TsRes = 0.0183939
ExecutionTime = 0.06 s



Wall heat fluxes [W]
movingWall 0 -2.59264e-14 0 -2.59264e-14
left 0.0379922 4.50918e-16 0 0.0379922
right -1.9015 3.09923e-15 0 -1.9015
bottom 0 0 0 0
frontAndBack 0 0 0 0
sum -1.86351 -2.23762e-14 0 -1.86351


Wall heat fluxes [W]
topAndBottom 0 0 0 0
left 1.90052 0 0 1.90052
right -1.88213 0 0 -1.88213
frontAndBack 0 0 0 0
sum 0.0183939 0 0 0.0183939

Time = 23

DILUPBiCG:  Solving for Ux, Initial residual = 0.0355284, Final residual = 1.18075e-05, No Iterations 2
DILUPBiCG:  Solving for Uy, Initial residual = 0.0526443, Final residual = 1.19014e-05, No Iterations 2
DICPCG:  Solving for p_rgh, Initial residual = 0.0873265, Final residual = 0.000425023, No Iterations 10
time step continuity errors : sum local = 0.00111096, global = -6.09864e-16, cumulative = -1.55798e-14
DILUPBiCG:  Solving for epsilon, Initial residual = 0.015641, Final residual = 4.44093e-06, No Iterations 3
DILUPBiCG:  Solving for k, Initial residual = 0.0373328, Final residual = 0.000226143, No Iterations 2
Before T+T solve
BiCG:  Solving for T+T, Initial residual = 0.0037082, Final residual = 0.000247248, No Iterations 1
Tres = -1.85892
TsRes = 0.0226731
ExecutionTime = 0.06 s



Wall heat fluxes [W]
movingWall 0 -2.59524e-14 0 -2.59524e-14
left 0.0455218 4.16232e-16 0 0.0455218
right -1.90444 4.20482e-15 0 -1.90444
bottom 0 0 0 0
frontAndBack 0 0 0 0
sum -1.85892 -2.13314e-14 0 -1.85892


Wall heat fluxes [W]
topAndBottom 0 0 0 0
left 1.90352 0 0 1.90352
right -1.88085 0 0 -1.88085
frontAndBack 0 0 0 0
sum 0.0226731 0 0 0.0226731

Time = 24

DILUPBiCG:  Solving for Ux, Initial residual = 0.0368118, Final residual = 1.11113e-05, No Iterations 2
DILUPBiCG:  Solving for Uy, Initial residual = 0.0507829, Final residual = 7.6535e-06, No Iterations 2
DICPCG:  Solving for p_rgh, Initial residual = 0.0882538, Final residual = 0.00035725, No Iterations 10
time step continuity errors : sum local = 0.00094382, global = -6.3104e-16, cumulative = -1.62109e-14
DILUPBiCG:  Solving for epsilon, Initial residual = 0.0153905, Final residual = 3.94224e-06, No Iterations 3
DILUPBiCG:  Solving for k, Initial residual = 0.0354638, Final residual = 0.00020933, No Iterations 2
Before T+T solve
BiCG:  Solving for T+T, Initial residual = 0.00379298, Final residual = 0.000249117, No Iterations 1
Tres = -1.84937
TsRes = 0.0227314
ExecutionTime = 0.06 s



Wall heat fluxes [W]
movingWall 0 -2.59872e-14 0 -2.59872e-14
left 0.0540186 -1.38744e-16 0 0.0540186
right -1.90339 3.7724e-15 0 -1.90339
bottom 0 0 0 0
frontAndBack 0 0 0 0
sum -1.84937 -2.23535e-14 0 -1.84937


Wall heat fluxes [W]
topAndBottom 0 0 0 0
left 1.90261 0 0 1.90261
right -1.87988 0 0 -1.87988
frontAndBack 0 0 0 0
sum 0.0227314 0 0 0.0227314

Time = 25

DILUPBiCG:  Solving for Ux, Initial residual = 0.0379623, Final residual = 1.0425e-05, No Iterations 2
DILUPBiCG:  Solving for Uy, Initial residual = 0.0494322, Final residual = 8.04842e-06, No Iterations 2
DICPCG:  Solving for p_rgh, Initial residual = 0.0906285, Final residual = 0.000817647, No Iterations 9
time step continuity errors : sum local = 0.00230516, global = -6.92979e-16, cumulative = -1.69038e-14
DILUPBiCG:  Solving for epsilon, Initial residual = 0.0150784, Final residual = 0.000101811, No Iterations 2
DILUPBiCG:  Solving for k, Initial residual = 0.0334216, Final residual = 0.000193583, No Iterations 2
Before T+T solve
BiCG:  Solving for T+T, Initial residual = 0.00384704, Final residual = 0.00024884, No Iterations 1
Tres = -1.83466
TsRes = 0.0185204
ExecutionTime = 0.06 s



Wall heat fluxes [W]
movingWall 0 -2.60314e-14 0 -2.60314e-14
left 0.0636113 0 0 0.0636113
right -1.89827 1.32888e-15 0 -1.89827
bottom 0 0 0 0
frontAndBack 0 0 0 0
sum -1.83466 -2.47026e-14 0 -1.83466


Wall heat fluxes [W]
topAndBottom 0 0 0 0
left 1.89773 0 0 1.89773
right -1.87921 0 0 -1.87921
frontAndBack 0 0 0 0
sum 0.0185204 0 0 0.0185204

Time = 26

DILUPBiCG:  Solving for Ux, Initial residual = 0.039136, Final residual = 9.75994e-06, No Iterations 2
DILUPBiCG:  Solving for Uy, Initial residual = 0.0481401, Final residual = 1.03958e-05, No Iterations 2
DICPCG:  Solving for p_rgh, Initial residual = 0.0910705, Final residual = 0.000411149, No Iterations 10
time step continuity errors : sum local = 0.00123662, global = -7.21037e-16, cumulative = -1.76249e-14
DILUPBiCG:  Solving for epsilon, Initial residual = 0.01485, Final residual = 7.07934e-05, No Iterations 2
DILUPBiCG:  Solving for k, Initial residual = 0.0313845, Final residual = 0.000177178, No Iterations 2
Before T+T solve
BiCG:  Solving for T+T, Initial residual = 0.00387188, Final residual = 0.000246777, No Iterations 1
Tres = -1.81529
TsRes = 0.0104312
ExecutionTime = 0.07 s



Wall heat fluxes [W]
movingWall 0 -2.60869e-14 0 -2.60869e-14
left 0.0741718 -2.77488e-16 0 0.0741718
right -1.88946 -8.88469e-16 0 -1.88946
bottom 0 0 0 0
frontAndBack 0 0 0 0
sum -1.81529 -2.72528e-14 0 -1.81529


Wall heat fluxes [W]
topAndBottom 0 0 0 0
left 1.88921 0 0 1.88921
right -1.87878 0 0 -1.87878
frontAndBack 0 0 0 0
sum 0.0104312 0 0 0.0104312

Time = 27

DILUPBiCG:  Solving for Ux, Initial residual = 0.0402648, Final residual = 0.000401026, No Iterations 1
DILUPBiCG:  Solving for Uy, Initial residual = 0.0466683, Final residual = 1.14405e-05, No Iterations 2
DICPCG:  Solving for p_rgh, Initial residual = 0.0879079, Final residual = 0.000465873, No Iterations 10
time step continuity errors : sum local = 0.00149757, global = -8.99973e-16, cumulative = -1.85249e-14
DILUPBiCG:  Solving for epsilon, Initial residual = 0.0142859, Final residual = 5.50077e-05, No Iterations 2
DILUPBiCG:  Solving for k, Initial residual = 0.029533, Final residual = 0.0001606, No Iterations 2
Before T+T solve
BiCG:  Solving for T+T, Initial residual = 0.00386436, Final residual = 0.000243644, No Iterations 1
Tres = -1.79327
TsRes = 0.000665067
ExecutionTime = 0.07 s



Wall heat fluxes [W]
movingWall 0 -2.61558e-14 0 -2.61558e-14
left 0.0859042 -8.32464e-16 0 0.0859042
right -1.87917 -6.43501e-15 0 -1.87917
bottom 0 0 0 0
frontAndBack 0 0 0 0
sum -1.79327 -3.34233e-14 0 -1.79327


Wall heat fluxes [W]
topAndBottom 0 0 0 0
left 1.87923 0 0 1.87923
right -1.87856 0 0 -1.87856
frontAndBack 0 0 0 0
sum 0.000665067 0 0 0.000665067

Time = 28

DILUPBiCG:  Solving for Ux, Initial residual = 0.041257, Final residual = 8.42275e-06, No Iterations 2
DILUPBiCG:  Solving for Uy, Initial residual = 0.0452659, Final residual = 1.22542e-05, No Iterations 2
DICPCG:  Solving for p_rgh, Initial residual = 0.0852382, Final residual = 0.000571013, No Iterations 10
time step continuity errors : sum local = 0.00194982, global = -5.45277e-16, cumulative = -1.90701e-14
DILUPBiCG:  Solving for epsilon, Initial residual = 0.0136766, Final residual = 4.7539e-05, No Iterations 2
DILUPBiCG:  Solving for k, Initial residual = 0.0279129, Final residual = 0.000144536, No Iterations 2
Before T+T solve
BiCG:  Solving for T+T, Initial residual = 0.00382671, Final residual = 0.000244653, No Iterations 1
Tres = -1.76534
TsRes = -0.0136748
ExecutionTime = 0.07 s



Wall heat fluxes [W]
movingWall 0 -2.62406e-14 0 -2.62406e-14
left 0.0991048 1.66493e-15 0 0.0991048
right -1.86445 3.9912e-15 0 -1.86445
bottom 0 0 0 0
frontAndBack 0 0 0 0
sum -1.76534 -2.05844e-14 0 -1.76534


Wall heat fluxes [W]
topAndBottom 0 0 0 0
left 1.86481 0 0 1.86481
right -1.87848 0 0 -1.87848
frontAndBack 0 0 0 0
sum -0.0136748 0 0 -0.0136748

Time = 29

DILUPBiCG:  Solving for Ux, Initial residual = 0.0420292, Final residual = 7.51256e-06, No Iterations 2
DILUPBiCG:  Solving for Uy, Initial residual = 0.0437799, Final residual = 1.27185e-05, No Iterations 2
DICPCG:  Solving for p_rgh, Initial residual = 0.0815873, Final residual = 0.000696641, No Iterations 10
time step continuity errors : sum local = 0.00249871, global = -6.85038e-16, cumulative = -1.97552e-14
DILUPBiCG:  Solving for epsilon, Initial residual = 0.0132789, Final residual = 4.36216e-05, No Iterations 2
DILUPBiCG:  Solving for k, Initial residual = 0.0264839, Final residual = 0.000129763, No Iterations 2
Before T+T solve
BiCG:  Solving for T+T, Initial residual = 0.00378045, Final residual = 0.000244674, No Iterations 1
Tres = -1.73251
TsRes = -0.0317303
ExecutionTime = 0.07 s



Wall heat fluxes [W]
movingWall 0 -2.63432e-14 0 -2.63432e-14
left 0.113441 1.38744e-16 0 0.113441
right -1.84595 2.65385e-15 0 -1.84595
bottom 0 0 0 0
frontAndBack 0 0 0 0
sum -1.73251 -2.35506e-14 0 -1.73251


Wall heat fluxes [W]
topAndBottom 0 0 0 0
left 1.84677 0 0 1.84677
right -1.8785 0 0 -1.8785
frontAndBack 0 0 0 0
sum -0.0317303 0 0 -0.0317303

Time = 30

DILUPBiCG:  Solving for Ux, Initial residual = 0.0427373, Final residual = 6.46144e-06, No Iterations 2
DILUPBiCG:  Solving for Uy, Initial residual = 0.0422056, Final residual = 1.27899e-05, No Iterations 2
DICPCG:  Solving for p_rgh, Initial residual = 0.0762409, Final residual = 0.000715269, No Iterations 10
time step continuity errors : sum local = 0.00266371, global = -5.97158e-16, cumulative = -2.03523e-14
DILUPBiCG:  Solving for epsilon, Initial residual = 0.0127484, Final residual = 3.97338e-05, No Iterations 2
DILUPBiCG:  Solving for k, Initial residual = 0.0249617, Final residual = 0.000116205, No Iterations 2
Before T+T solve
BiCG:  Solving for T+T, Initial residual = 0.00374022, Final residual = 0.000247888, No Iterations 1
Tres = -1.69568
TsRes = -0.0526316
ExecutionTime = 0.07 s



Wall heat fluxes [W]
movingWall 0 -2.64655e-14 0 -2.64655e-14
left 0.128926 0 0 0.128926
right -1.8246 5.98475e-15 0 -1.8246
bottom 0 0 0 0
frontAndBack 0 0 0 0
sum -1.69568 -2.04807e-14 0 -1.69568


Wall heat fluxes [W]
topAndBottom 0 0 0 0
left 1.8259 0 0 1.8259
right -1.87853 0 0 -1.87853
frontAndBack 0 0 0 0
sum -0.0526316 0 0 -0.0526316

Time = 31

DILUPBiCG:  Solving for Ux, Initial residual = 0.0430362, Final residual = 5.60707e-06, No Iterations 2
DILUPBiCG:  Solving for Uy, Initial residual = 0.0405577, Final residual = 1.27724e-05, No Iterations 2
DICPCG:  Solving for p_rgh, Initial residual = 0.0694259, Final residual = 0.000668572, No Iterations 10
time step continuity errors : sum local = 0.00256792, global = -7.01979e-16, cumulative = -2.10543e-14
DILUPBiCG:  Solving for epsilon, Initial residual = 0.0120117, Final residual = 3.57661e-05, No Iterations 2
DILUPBiCG:  Solving for k, Initial residual = 0.0232859, Final residual = 0.000103531, No Iterations 2
Before T+T solve
BiCG:  Solving for T+T, Initial residual = 0.00365889, Final residual = 0.000251434, No Iterations 1
Tres = -1.65585
TsRes = -0.0754006
ExecutionTime = 0.08 s



Wall heat fluxes [W]
movingWall 0 -2.66089e-14 0 -2.66089e-14
left 0.145504 1.2487e-15 0 0.145504
right -1.80135 -4.43531e-15 0 -1.80135
bottom 0 0 0 0
frontAndBack 0 0 0 0
sum -1.65585 -2.97955e-14 0 -1.65585


Wall heat fluxes [W]
topAndBottom 0 0 0 0
left 1.80312 0 0 1.80312
right -1.87853 0 0 -1.87853
frontAndBack 0 0 0 0
sum -0.0754006 0 0 -0.0754006

Time = 32

DILUPBiCG:  Solving for Ux, Initial residual = 0.0433429, Final residual = 5.0456e-06, No Iterations 2
DILUPBiCG:  Solving for Uy, Initial residual = 0.0389101, Final residual = 1.26775e-05, No Iterations 2
DICPCG:  Solving for p_rgh, Initial residual = 0.0630982, Final residual = 0.000324677, No Iterations 11
time step continuity errors : sum local = 0.00128997, global = -7.71859e-16, cumulative = -2.18262e-14
DILUPBiCG:  Solving for epsilon, Initial residual = 0.0111819, Final residual = 3.17511e-05, No Iterations 2
DILUPBiCG:  Solving for k, Initial residual = 0.0214963, Final residual = 9.17509e-05, No Iterations 2
Before T+T solve
BiCG:  Solving for T+T, Initial residual = 0.00358846, Final residual = 0.000261927, No Iterations 1
Tres = -1.61403
TsRes = -0.0991177
ExecutionTime = 0.08 s



Wall heat fluxes [W]
movingWall 0 -2.67746e-14 0 -2.67746e-14
left 0.163044 1.38744e-15 0 0.163044
right -1.77707 -2.21741e-15 0 -1.77707
bottom 0 0 0 0
frontAndBack 0 0 0 0
sum -1.61403 -2.76046e-14 0 -1.61403


Wall heat fluxes [W]
topAndBottom 0 0 0 0
left 1.77929 0 0 1.77929
right -1.87841 0 0 -1.87841
frontAndBack 0 0 0 0
sum -0.0991177 0 0 -0.0991177

Time = 33

DILUPBiCG:  Solving for Ux, Initial residual = 0.0435206, Final residual = 4.77546e-06, No Iterations 2
DILUPBiCG:  Solving for Uy, Initial residual = 0.0374023, Final residual = 1.21106e-05, No Iterations 2
DICPCG:  Solving for p_rgh, Initial residual = 0.0563054, Final residual = 0.000355676, No Iterations 11
time step continuity errors : sum local = 0.00146225, global = -7.22096e-16, cumulative = -2.25483e-14
DILUPBiCG:  Solving for epsilon, Initial residual = 0.0102069, Final residual = 2.76003e-05, No Iterations 2
DILUPBiCG:  Solving for k, Initial residual = 0.0196236, Final residual = 8.17355e-05, No Iterations 2
Before T+T solve
BiCG:  Solving for T+T, Initial residual = 0.00352729, Final residual = 0.000283751, No Iterations 1
Tres = -1.5713
TsRes = -0.123056
ExecutionTime = 0.08 s



Wall heat fluxes [W]
movingWall 0 -2.69615e-14 0 -2.69615e-14
left 0.181131 -9.71208e-16 0 0.181131
right -1.75243 3.88318e-15 0 -1.75243
bottom 0 0 0 0
frontAndBack 0 0 0 0
sum -1.5713 -2.40495e-14 0 -1.5713


Wall heat fluxes [W]
topAndBottom 0 0 0 0
left 1.75507 0 0 1.75507
right -1.87813 0 0 -1.87813
frontAndBack 0 0 0 0
sum -0.123056 0 0 -0.123056

Time = 34

DILUPBiCG:  Solving for Ux, Initial residual = 0.0436025, Final residual = 4.71233e-06, No Iterations 2
DILUPBiCG:  Solving for Uy, Initial residual = 0.0359377, Final residual = 1.14108e-05, No Iterations 2
DICPCG:  Solving for p_rgh, Initial residual = 0.0496096, Final residual = 0.000351744, No Iterations 11
time step continuity errors : sum local = 0.00147028, global = -6.37922e-16, cumulative = -2.31862e-14
DILUPBiCG:  Solving for epsilon, Initial residual = 0.00923788, Final residual = 2.34653e-05, No Iterations 2
DILUPBiCG:  Solving for k, Initial residual = 0.0177935, Final residual = 7.29761e-05, No Iterations 2
Before T+T solve
BiCG:  Solving for T+T, Initial residual = 0.00345952, Final residual = 0.000315199, No Iterations 1
Tres = -1.52863
TsRes = -0.146495
ExecutionTime = 0.08 s



Wall heat fluxes [W]
movingWall 0 -2.71678e-14 0 -2.71678e-14
left 0.19948 -4.16232e-16 0 0.19948
right -1.72811 -1.77438e-15 0 -1.72811
bottom 0 0 0 0
frontAndBack 0 0 0 0
sum -1.52863 -2.93584e-14 0 -1.52863


Wall heat fluxes [W]
topAndBottom 0 0 0 0
left 1.73112 0 0 1.73112
right -1.87761 0 0 -1.87761
frontAndBack 0 0 0 0
sum -0.146495 0 0 -0.146495

Time = 35

DILUPBiCG:  Solving for Ux, Initial residual = 0.0435857, Final residual = 4.73538e-06, No Iterations 2
DILUPBiCG:  Solving for Uy, Initial residual = 0.0345721, Final residual = 1.01344e-05, No Iterations 2
DICPCG:  Solving for p_rgh, Initial residual = 0.0446743, Final residual = 0.000353436, No Iterations 11
time step continuity errors : sum local = 0.00148948, global = -8.96796e-16, cumulative = -2.4083e-14
DILUPBiCG:  Solving for epsilon, Initial residual = 0.00825365, Final residual = 1.94722e-05, No Iterations 2
DILUPBiCG:  Solving for k, Initial residual = 0.0161285, Final residual = 6.61865e-05, No Iterations 2
Before T+T solve
BiCG:  Solving for T+T, Initial residual = 0.00340649, Final residual = 0.000253274, No Iterations 3
Tres = -1.49584
TsRes = -0.148292
ExecutionTime = 0.08 s



Wall heat fluxes [W]
movingWall 0 -2.73837e-14 0 -2.73837e-14
left 0.217951 1.10995e-15 0 0.217951
right -1.71379 -9.77069e-15 0 -1.71379
bottom 0 0 0 0
frontAndBack 0 0 0 0
sum -1.49584 -3.60444e-14 0 -1.49584


Wall heat fluxes [W]
topAndBottom 0 0 0 0
left 1.71714 0 0 1.71714
right -1.86543 0 0 -1.86543
frontAndBack 0 0 0 0
sum -0.148292 0 0 -0.148292

Time = 36

DILUPBiCG:  Solving for Ux, Initial residual = 0.0434344, Final residual = 4.84788e-06, No Iterations 2
DILUPBiCG:  Solving for Uy, Initial residual = 0.0331872, Final residual = 7.16018e-06, No Iterations 2
DICPCG:  Solving for p_rgh, Initial residual = 0.0403221, Final residual = 0.000373298, No Iterations 11
time step continuity errors : sum local = 0.0015842, global = -5.87629e-16, cumulative = -2.46706e-14
DILUPBiCG:  Solving for epsilon, Initial residual = 0.00726546, Final residual = 1.56723e-05, No Iterations 2
DILUPBiCG:  Solving for k, Initial residual = 0.0145279, Final residual = 6.3109e-05, No Iterations 2
Before T+T solve
BiCG:  Solving for T+T, Initial residual = 0.00339303, Final residual = 0.000318914, No Iterations 1
Tres = -1.45362
TsRes = -0.147987
ExecutionTime = 0.09 s



Wall heat fluxes [W]
movingWall 0 -2.76294e-14 0 -2.76294e-14
left 0.235877 9.71208e-16 0 0.235877
right -1.6895 -1.22292e-15 0 -1.6895
bottom 0 0 0 0
frontAndBack 0 0 0 0
sum -1.45362 -2.78811e-14 0 -1.45362


Wall heat fluxes [W]
topAndBottom 0 0 0 0
left 1.71357 0 0 1.71357
right -1.86156 0 0 -1.86156
frontAndBack 0 0 0 0
sum -0.147987 0 0 -0.147987

Time = 37

DILUPBiCG:  Solving for Ux, Initial residual = 0.0429233, Final residual = 4.99329e-06, No Iterations 2
DILUPBiCG:  Solving for Uy, Initial residual = 0.0322802, Final residual = 7.24665e-06, No Iterations 2
DICPCG:  Solving for p_rgh, Initial residual = 0.0420073, Final residual = 0.000289691, No Iterations 11
time step continuity errors : sum local = 0.00123646, global = -6.37392e-16, cumulative = -2.5308e-14
DILUPBiCG:  Solving for epsilon, Initial residual = 0.00648368, Final residual = 1.21442e-05, No Iterations 2
DILUPBiCG:  Solving for k, Initial residual = 0.0132077, Final residual = 7.3541e-05, No Iterations 2
Before T+T solve
BiCG:  Solving for T+T, Initial residual = 0.00333342, Final residual = 0.00021551, No Iterations 3
Tres = -1.42504
TsRes = -0.139579
ExecutionTime = 0.09 s



Wall heat fluxes [W]
movingWall 0 -2.78707e-14 0 -2.78707e-14
left 0.253521 -1.2487e-15 0 0.253521
right -1.67856 3.67088e-15 0 -1.67856
bottom 0 0 0 0
frontAndBack 0 0 0 0
sum -1.42504 -2.54485e-14 0 -1.42504


Wall heat fluxes [W]
topAndBottom 0 0 0 0
left 1.68009 0 0 1.68009
right -1.81967 0 0 -1.81967
frontAndBack 0 0 0 0
sum -0.139579 0 0 -0.139579

Time = 38

DILUPBiCG:  Solving for Ux, Initial residual = 0.0429242, Final residual = 5.29953e-06, No Iterations 2
DILUPBiCG:  Solving for Uy, Initial residual = 0.0312421, Final residual = 5.14196e-06, No Iterations 2
DICPCG:  Solving for p_rgh, Initial residual = 0.0429238, Final residual = 0.000278454, No Iterations 11
time step continuity errors : sum local = 0.0011832, global = -7.50683e-16, cumulative = -2.60587e-14
DILUPBiCG:  Solving for epsilon, Initial residual = 0.00589572, Final residual = 9.04939e-06, No Iterations 2
DILUPBiCG:  Solving for k, Initial residual = 0.0123325, Final residual = 2.24248e-06, No Iterations 3
Before T+T solve
BiCG:  Solving for T+T, Initial residual = 0.00326705, Final residual = 0.00030154, No Iterations 1
Tres = -1.38551
TsRes = -0.133371
ExecutionTime = 0.09 s



Wall heat fluxes [W]
movingWall 0 -2.81343e-14 0 -2.81343e-14
left 0.270393 0 0 0.270393
right -1.6559 -1.22698e-15 0 -1.6559
bottom 0 0 0 0
frontAndBack 0 0 0 0
sum -1.38551 -2.93613e-14 0 -1.38551


Wall heat fluxes [W]
topAndBottom 0 0 0 0
left 1.68329 0 0 1.68329
right -1.81666 0 0 -1.81666
frontAndBack 0 0 0 0
sum -0.133371 0 0 -0.133371

Time = 39

DILUPBiCG:  Solving for Ux, Initial residual = 0.0419812, Final residual = 5.38319e-06, No Iterations 2
DILUPBiCG:  Solving for Uy, Initial residual = 0.0305757, Final residual = 0.000284824, No Iterations 1
DICPCG:  Solving for p_rgh, Initial residual = 0.0490394, Final residual = 0.000238506, No Iterations 11
time step continuity errors : sum local = 0.00100447, global = -7.07273e-16, cumulative = -2.6766e-14
DILUPBiCG:  Solving for epsilon, Initial residual = 0.00549814, Final residual = 6.35153e-06, No Iterations 2
DILUPBiCG:  Solving for k, Initial residual = 0.0117604, Final residual = 1.72506e-06, No Iterations 3
Before T+T solve
BiCG:  Solving for T+T, Initial residual = 0.00320815, Final residual = 0.00022653, No Iterations 3
Tres = -1.36038
TsRes = -0.134117
ExecutionTime = 0.09 s



Wall heat fluxes [W]
movingWall 0 -2.83874e-14 0 -2.83874e-14
left 0.286129 -9.71208e-16 0 0.286129
right -1.64651 -1.13735e-16 0 -1.64651
bottom 0 0 0 0
frontAndBack 0 0 0 0
sum -1.36038 -2.94723e-14 0 -1.36038


Wall heat fluxes [W]
topAndBottom 0 0 0 0
left 1.6475 0 0 1.6475
right -1.78162 0 0 -1.78162
frontAndBack 0 0 0 0
sum -0.134117 0 0 -0.134117

Time = 40

DILUPBiCG:  Solving for Ux, Initial residual = 0.0420818, Final residual = 5.72579e-06, No Iterations 2
DILUPBiCG:  Solving for Uy, Initial residual = 0.0300644, Final residual = 0.00025664, No Iterations 1
DICPCG:  Solving for p_rgh, Initial residual = 0.0550094, Final residual = 0.000246502, No Iterations 11
time step continuity errors : sum local = 0.00103411, global = -6.26275e-16, cumulative = -2.73922e-14
DILUPBiCG:  Solving for epsilon, Initial residual = 0.00533428, Final residual = 6.32075e-06, No Iterations 2
DILUPBiCG:  Solving for k, Initial residual = 0.0113915, Final residual = 1.2815e-06, No Iterations 3
Before T+T solve
BiCG:  Solving for T+T, Initial residual = 0.00318468, Final residual = 0.000296942, No Iterations 1
Tres = -1.32521
TsRes = -0.126737
ExecutionTime = 0.1 s



Wall heat fluxes [W]
movingWall 0 -2.86525e-14 0 -2.86525e-14
left 0.300383 -9.71208e-16 0 0.300383
right -1.6256 3.23793e-15 0 -1.6256
bottom 0 0 0 0
frontAndBack 0 0 0 0
sum -1.32521 -2.63858e-14 0 -1.32521


Wall heat fluxes [W]
topAndBottom 0 0 0 0
left 1.65167 0 0 1.65167
right -1.7784 0 0 -1.7784
frontAndBack 0 0 0 0
sum -0.126737 0 0 -0.126737

Time = 41

DILUPBiCG:  Solving for Ux, Initial residual = 0.0413781, Final residual = 5.87633e-06, No Iterations 2
DILUPBiCG:  Solving for Uy, Initial residual = 0.0300214, Final residual = 0.000223709, No Iterations 1
DICPCG:  Solving for p_rgh, Initial residual = 0.0688679, Final residual = 0.000663115, No Iterations 5
time step continuity errors : sum local = 0.00388721, global = -8.59738e-16, cumulative = -2.8252e-14
DILUPBiCG:  Solving for epsilon, Initial residual = 0.00527334, Final residual = 5.98875e-06, No Iterations 2
DILUPBiCG:  Solving for k, Initial residual = 0.0113092, Final residual = 6.43161e-05, No Iterations 2
Before T+T solve
BiCG:  Solving for T+T, Initial residual = 0.00311684, Final residual = 0.000236948, No Iterations 3
Tres = -1.3028
TsRes = -0.126066
ExecutionTime = 0.1 s



Wall heat fluxes [W]
movingWall 0 -2.88943e-14 0 -2.88943e-14
left 0.31415 -4.43981e-15 0 0.31415
right -1.61695 5.59955e-16 0 -1.61695
bottom 0 0 0 0
frontAndBack 0 0 0 0
sum -1.3028 -3.27742e-14 0 -1.3028


Wall heat fluxes [W]
topAndBottom 0 0 0 0
left 1.61771 0 0 1.61771
right -1.74378 0 0 -1.74378
frontAndBack 0 0 0 0
sum -0.126066 0 0 -0.126066

Time = 42

DILUPBiCG:  Solving for Ux, Initial residual = 0.0407907, Final residual = 6.31235e-06, No Iterations 2
DILUPBiCG:  Solving for Uy, Initial residual = 0.0298577, Final residual = 0.000220656, No Iterations 1
DICPCG:  Solving for p_rgh, Initial residual = 0.0667058, Final residual = 0.000248694, No Iterations 11
time step continuity errors : sum local = 0.00107396, global = -8.1527e-16, cumulative = -2.90672e-14
DILUPBiCG:  Solving for epsilon, Initial residual = 0.00537712, Final residual = 1.17372e-05, No Iterations 2
DILUPBiCG:  Solving for k, Initial residual = 0.0112539, Final residual = 3.83676e-05, No Iterations 2
Before T+T solve
BiCG:  Solving for T+T, Initial residual = 0.00312414, Final residual = 0.000292546, No Iterations 1
Tres = -1.26706
TsRes = -0.119506
ExecutionTime = 0.1 s



Wall heat fluxes [W]
movingWall 0 -2.91274e-14 0 -2.91274e-14
left 0.329712 -3.4686e-15 0 0.329712
right -1.59678 -2.68502e-15 0 -1.59678
bottom 0 0 0 0
frontAndBack 0 0 0 0
sum -1.26706 -3.5281e-14 0 -1.26706


Wall heat fluxes [W]
topAndBottom 0 0 0 0
left 1.6214 0 0 1.6214
right -1.7409 0 0 -1.7409
frontAndBack 0 0 0 0
sum -0.119506 0 0 -0.119506

Time = 43

DILUPBiCG:  Solving for Ux, Initial residual = 0.0408517, Final residual = 6.15223e-06, No Iterations 2
DILUPBiCG:  Solving for Uy, Initial residual = 0.0302419, Final residual = 0.000205098, No Iterations 1
DICPCG:  Solving for p_rgh, Initial residual = 0.0494714, Final residual = 0.000479578, No Iterations 5
time step continuity errors : sum local = 0.00290483, global = -4.17164e-16, cumulative = -2.94844e-14
DILUPBiCG:  Solving for epsilon, Initial residual = 0.00555036, Final residual = 3.40763e-07, No Iterations 3
DILUPBiCG:  Solving for k, Initial residual = 0.0112984, Final residual = 3.07837e-05, No Iterations 2
Before T+T solve
BiCG:  Solving for T+T, Initial residual = 0.00306838, Final residual = 0.000249144, No Iterations 3
Tres = -1.24471
TsRes = -0.120389
ExecutionTime = 0.1 s



Wall heat fluxes [W]
movingWall 0 -2.93375e-14 0 -2.93375e-14
left 0.343467 4.85604e-15 0 0.343467
right -1.58818 5.81353e-15 0 -1.58818
bottom 0 0 0 0
frontAndBack 0 0 0 0
sum -1.24471 -1.86679e-14 0 -1.24471


Wall heat fluxes [W]
topAndBottom 0 0 0 0
left 1.58883 0 0 1.58883
right -1.70922 0 0 -1.70922
frontAndBack 0 0 0 0
sum -0.120389 0 0 -0.120389

Time = 44

DILUPBiCG:  Solving for Ux, Initial residual = 0.0400559, Final residual = 6.01158e-06, No Iterations 2
DILUPBiCG:  Solving for Uy, Initial residual = 0.0305031, Final residual = 0.000203974, No Iterations 1
DICPCG:  Solving for p_rgh, Initial residual = 0.0459429, Final residual = 0.000196591, No Iterations 11
time step continuity errors : sum local = 0.000774391, global = -5.64336e-16, cumulative = -3.00487e-14
DILUPBiCG:  Solving for epsilon, Initial residual = 0.00578458, Final residual = 2.66259e-05, No Iterations 2
DILUPBiCG:  Solving for k, Initial residual = 0.0114315, Final residual = 2.67923e-05, No Iterations 2
Before T+T solve
BiCG:  Solving for T+T, Initial residual = 0.00310159, Final residual = 0.000293116, No Iterations 1
Tres = -1.21102
TsRes = -0.115255
ExecutionTime = 0.1 s



Wall heat fluxes [W]
movingWall 0 -2.95336e-14 0 -2.95336e-14
left 0.356747 4.43981e-15 0 0.356747
right -1.56777 4.47631e-16 0 -1.56777
bottom 0 0 0 0
frontAndBack 0 0 0 0
sum -1.21102 -2.46461e-14 0 -1.21102


Wall heat fluxes [W]
topAndBottom 0 0 0 0
left 1.59118 0 0 1.59118
right -1.70643 0 0 -1.70643
frontAndBack 0 0 0 0
sum -0.115255 0 0 -0.115255

Time = 45

DILUPBiCG:  Solving for Ux, Initial residual = 0.039957, Final residual = 5.87953e-06, No Iterations 2
DILUPBiCG:  Solving for Uy, Initial residual = 0.0310572, Final residual = 0.000186558, No Iterations 1
DICPCG:  Solving for p_rgh, Initial residual = 0.0527493, Final residual = 0.000499028, No Iterations 5
time step continuity errors : sum local = 0.00254462, global = -6.35275e-16, cumulative = -3.0684e-14
DILUPBiCG:  Solving for epsilon, Initial residual = 0.00602753, Final residual = 1.61387e-05, No Iterations 2
DILUPBiCG:  Solving for k, Initial residual = 0.0114928, Final residual = 2.44391e-05, No Iterations 2
Before T+T solve
BiCG:  Solving for T+T, Initial residual = 0.00305964, Final residual = 0.000255944, No Iterations 3
Tres = -1.18947
TsRes = -0.117014
ExecutionTime = 0.11 s



Wall heat fluxes [W]
movingWall 0 -2.9707e-14 0 -2.9707e-14
left 0.369041 4.99478e-15 0 0.369041
right -1.55851 -2.68744e-15 0 -1.55851
bottom 0 0 0 0
frontAndBack 0 0 0 0
sum -1.18947 -2.73996e-14 0 -1.18947


Wall heat fluxes [W]
topAndBottom 0 0 0 0
left 1.55916 0 0 1.55916
right -1.67617 0 0 -1.67617
frontAndBack 0 0 0 0
sum -0.117014 0 0 -0.117014

Time = 46

DILUPBiCG:  Solving for Ux, Initial residual = 0.0393296, Final residual = 5.89989e-06, No Iterations 2
DILUPBiCG:  Solving for Uy, Initial residual = 0.0314498, Final residual = 0.00018604, No Iterations 1
DICPCG:  Solving for p_rgh, Initial residual = 0.0554459, Final residual = 0.000221718, No Iterations 11
time step continuity errors : sum local = 0.000776653, global = -7.87741e-16, cumulative = -3.14718e-14
DILUPBiCG:  Solving for epsilon, Initial residual = 0.00633527, Final residual = 1.37036e-05, No Iterations 2
DILUPBiCG:  Solving for k, Initial residual = 0.0118464, Final residual = 2.615e-05, No Iterations 2
Before T+T solve
BiCG:  Solving for T+T, Initial residual = 0.00311556, Final residual = 0.000296938, No Iterations 1
Tres = -1.15649
TsRes = -0.113327
ExecutionTime = 0.11 s



Wall heat fluxes [W]
movingWall 0 -2.98695e-14 0 -2.98695e-14
left 0.380915 -3.32986e-15 0 0.380915
right -1.53741 3.70012e-15 0 -1.53741
bottom 0 0 0 0
frontAndBack 0 0 0 0
sum -1.15649 -2.94993e-14 0 -1.15649


Wall heat fluxes [W]
topAndBottom 0 0 0 0
left 1.56015 0 0 1.56015
right -1.67348 0 0 -1.67348
frontAndBack 0 0 0 0
sum -0.113327 0 0 -0.113327

Time = 47

DILUPBiCG:  Solving for Ux, Initial residual = 0.039359, Final residual = 5.86283e-06, No Iterations 2
DILUPBiCG:  Solving for Uy, Initial residual = 0.0319427, Final residual = 0.000176646, No Iterations 1
DICPCG:  Solving for p_rgh, Initial residual = 0.0543215, Final residual = 0.000508632, No Iterations 5
time step continuity errors : sum local = 0.00233492, global = -5.8882e-16, cumulative = -3.20606e-14
DILUPBiCG:  Solving for epsilon, Initial residual = 0.00661305, Final residual = 1.3485e-05, No Iterations 2
DILUPBiCG:  Solving for k, Initial residual = 0.0121675, Final residual = 2.40179e-05, No Iterations 2
Before T+T solve
BiCG:  Solving for T+T, Initial residual = 0.00309252, Final residual = 0.000257901, No Iterations 3
Tres = -1.1352
TsRes = -0.116214
ExecutionTime = 0.11 s



Wall heat fluxes [W]
movingWall 0 -3.00142e-14 0 -3.00142e-14
left 0.392031 -5.54976e-16 0 0.392031
right -1.52723 3.25318e-15 0 -1.52723
bottom 0 0 0 0
frontAndBack 0 0 0 0
sum -1.1352 -2.7316e-14 0 -1.1352


Wall heat fluxes [W]
topAndBottom 0 0 0 0
left 1.52792 0 0 1.52792
right -1.64413 0 0 -1.64413
frontAndBack 0 0 0 0
sum -0.116214 0 0 -0.116214

Time = 48

DILUPBiCG:  Solving for Ux, Initial residual = 0.0390267, Final residual = 5.95504e-06, No Iterations 2
DILUPBiCG:  Solving for Uy, Initial residual = 0.0324408, Final residual = 0.000182063, No Iterations 1
DICPCG:  Solving for p_rgh, Initial residual = 0.0502714, Final residual = 0.000220025, No Iterations 11
time step continuity errors : sum local = 0.000707599, global = -6.96685e-16, cumulative = -3.27573e-14
DILUPBiCG:  Solving for epsilon, Initial residual = 0.00698546, Final residual = 1.38438e-05, No Iterations 2
DILUPBiCG:  Solving for k, Initial residual = 0.012545, Final residual = 2.60472e-05, No Iterations 2
Before T+T solve
BiCG:  Solving for T+T, Initial residual = 0.00314508, Final residual = 0.00030257, No Iterations 1
Tres = -1.10233
TsRes = -0.113717
ExecutionTime = 0.11 s



Wall heat fluxes [W]
movingWall 0 -3.01527e-14 0 -3.01527e-14
left 0.40278 1.38744e-15 0 0.40278
right -1.50511 -4.51017e-16 0 -1.50511
bottom 0 0 0 0
frontAndBack 0 0 0 0
sum -1.10233 -2.92163e-14 0 -1.10233


Wall heat fluxes [W]
topAndBottom 0 0 0 0
left 1.52772 0 0 1.52772
right -1.64144 0 0 -1.64144
frontAndBack 0 0 0 0
sum -0.113717 0 0 -0.113717

Time = 49

DILUPBiCG:  Solving for Ux, Initial residual = 0.0393521, Final residual = 5.90328e-06, No Iterations 2
DILUPBiCG:  Solving for Uy, Initial residual = 0.033155, Final residual = 0.000198315, No Iterations 1
DICPCG:  Solving for p_rgh, Initial residual = 0.0496521, Final residual = 0.000472394, No Iterations 5
time step continuity errors : sum local = 0.00208568, global = -6.40571e-16, cumulative = -3.33978e-14
DILUPBiCG:  Solving for epsilon, Initial residual = 0.00733654, Final residual = 1.46556e-05, No Iterations 2
DILUPBiCG:  Solving for k, Initial residual = 0.0130342, Final residual = 3.06198e-05, No Iterations 2
Before T+T solve
BiCG:  Solving for T+T, Initial residual = 0.00313627, Final residual = 0.000257309, No Iterations 3
Tres = -1.08106
TsRes = -0.117457
ExecutionTime = 0.11 s



Wall heat fluxes [W]
movingWall 0 -3.02812e-14 0 -3.02812e-14
left 0.412859 8.32464e-16 0 0.412859
right -1.49392 1.34639e-15 0 -1.49392
bottom 0 0 0 0
frontAndBack 0 0 0 0
sum -1.08106 -2.81024e-14 0 -1.08106


Wall heat fluxes [W]
topAndBottom 0 0 0 0
left 1.49467 0 0 1.49467
right -1.61213 0 0 -1.61213
frontAndBack 0 0 0 0
sum -0.117457 0 0 -0.117457

Time = 50

DILUPBiCG:  Solving for Ux, Initial residual = 0.0392533, Final residual = 6.02362e-06, No Iterations 2
DILUPBiCG:  Solving for Uy, Initial residual = 0.0337364, Final residual = 0.000207163, No Iterations 1
DICPCG:  Solving for p_rgh, Initial residual = 0.0457165, Final residual = 0.000230225, No Iterations 11
time step continuity errors : sum local = 0.000716954, global = -7.14684e-16, cumulative = -3.41125e-14
DILUPBiCG:  Solving for epsilon, Initial residual = 0.00779823, Final residual = 1.54623e-05, No Iterations 2
DILUPBiCG:  Solving for k, Initial residual = 0.0136395, Final residual = 3.53031e-05, No Iterations 2
Before T+T solve
BiCG:  Solving for T+T, Initial residual = 0.00317532, Final residual = 0.000305733, No Iterations 1
Tres = -1.04789
TsRes = -0.115827
ExecutionTime = 0.12 s



Wall heat fluxes [W]
movingWall 0 -3.04084e-14 0 -3.04084e-14
left 0.422679 8.32464e-16 0 0.422679
right -1.47057 1.46267e-15 0 -1.47057
bottom 0 0 0 0
frontAndBack 0 0 0 0
sum -1.04789 -2.81133e-14 0 -1.04789


Wall heat fluxes [W]
topAndBottom 0 0 0 0
left 1.49358 0 0 1.49358
right -1.60941 0 0 -1.60941
frontAndBack 0 0 0 0
sum -0.115827 0 0 -0.115827

Time = 51

DILUPBiCG:  Solving for Ux, Initial residual = 0.0394327, Final residual = 6.06164e-06, No Iterations 2
DILUPBiCG:  Solving for Uy, Initial residual = 0.0344757, Final residual = 0.000229779, No Iterations 1
DICPCG:  Solving for p_rgh, Initial residual = 0.0437221, Final residual = 0.00041776, No Iterations 10
time step continuity errors : sum local = 0.00129944, global = -8.55501e-16, cumulative = -3.4968e-14
DILUPBiCG:  Solving for epsilon, Initial residual = 0.0081923, Final residual = 1.68085e-05, No Iterations 2
DILUPBiCG:  Solving for k, Initial residual = 0.0141899, Final residual = 4.02933e-05, No Iterations 2
Before T+T solve
BiCG:  Solving for T+T, Initial residual = 0.00315173, Final residual = 0.000253976, No Iterations 3
Tres = -1.02632
TsRes = -0.120425
ExecutionTime = 0.12 s



Wall heat fluxes [W]
movingWall 0 -3.05305e-14 0 -3.05305e-14
left 0.43199 -2.77488e-16 0 0.43199
right -1.45831 -1.46108e-15 0 -1.45831
bottom 0 0 0 0
frontAndBack 0 0 0 0
sum -1.02632 -3.2269e-14 0 -1.02632


Wall heat fluxes [W]
topAndBottom 0 0 0 0
left 1.45914 0 0 1.45914
right -1.57956 0 0 -1.57956
frontAndBack 0 0 0 0
sum -0.120425 0 0 -0.120425

Time = 52

DILUPBiCG:  Solving for Ux, Initial residual = 0.0397748, Final residual = 6.3376e-06, No Iterations 2
DILUPBiCG:  Solving for Uy, Initial residual = 0.03514, Final residual = 0.000248332, No Iterations 1
DICPCG:  Solving for p_rgh, Initial residual = 0.0411392, Final residual = 0.000347404, No Iterations 10
time step continuity errors : sum local = 0.00106953, global = -6.68097e-16, cumulative = -3.56361e-14
DILUPBiCG:  Solving for epsilon, Initial residual = 0.00867516, Final residual = 1.85404e-05, No Iterations 2
DILUPBiCG:  Solving for k, Initial residual = 0.0150386, Final residual = 4.57328e-05, No Iterations 2
Before T+T solve
BiCG:  Solving for T+T, Initial residual = 0.00322838, Final residual = 0.00031159, No Iterations 1
Tres = -0.992331
TsRes = -0.1195
ExecutionTime = 0.12 s



Wall heat fluxes [W]
movingWall 0 -3.06514e-14 0 -3.06514e-14
left 0.441184 1.66493e-15 0 0.441184
right -1.43352 4.05275e-15 0 -1.43352
bottom 0 0 0 0
frontAndBack 0 0 0 0
sum -0.992331 -2.49337e-14 0 -0.992331


Wall heat fluxes [W]
topAndBottom 0 0 0 0
left 1.45727 0 0 1.45727
right -1.57677 0 0 -1.57677
frontAndBack 0 0 0 0
sum -0.1195 0 0 -0.1195

Time = 53

DILUPBiCG:  Solving for Ux, Initial residual = 0.0392164, Final residual = 6.45807e-06, No Iterations 2
DILUPBiCG:  Solving for Uy, Initial residual = 0.0357786, Final residual = 0.000266472, No Iterations 1
DICPCG:  Solving for p_rgh, Initial residual = 0.0385902, Final residual = 0.000326261, No Iterations 11
time step continuity errors : sum local = 0.000980939, global = -8.94676e-16, cumulative = -3.65308e-14
DILUPBiCG:  Solving for epsilon, Initial residual = 0.00900356, Final residual = 1.99334e-05, No Iterations 2
DILUPBiCG:  Solving for k, Initial residual = 0.0156791, Final residual = 5.25167e-05, No Iterations 2
Before T+T solve
BiCG:  Solving for T+T, Initial residual = 0.00326269, Final residual = 0.000251633, No Iterations 3
Tres = -0.969879
TsRes = -0.125232
ExecutionTime = 0.12 s



Wall heat fluxes [W]
movingWall 0 -3.07708e-14 0 -3.07708e-14
left 0.449988 1.10995e-15 0 0.449988
right -1.41987 -5.06558e-15 0 -1.41987
bottom 0 0 0 0
frontAndBack 0 0 0 0
sum -0.969879 -3.47264e-14 0 -0.969879


Wall heat fluxes [W]
topAndBottom 0 0 0 0
left 1.4208 0 0 1.4208
right -1.54603 0 0 -1.54603
frontAndBack 0 0 0 0
sum -0.125232 0 0 -0.125232

Time = 54

DILUPBiCG:  Solving for Ux, Initial residual = 0.0397968, Final residual = 6.73327e-06, No Iterations 2
DILUPBiCG:  Solving for Uy, Initial residual = 0.0363186, Final residual = 0.000286251, No Iterations 1
DICPCG:  Solving for p_rgh, Initial residual = 0.0360845, Final residual = 0.000356393, No Iterations 11
time step continuity errors : sum local = 0.00106516, global = -8.55503e-16, cumulative = -3.73863e-14
DILUPBiCG:  Solving for epsilon, Initial residual = 0.00974879, Final residual = 2.182e-05, No Iterations 2
DILUPBiCG:  Solving for k, Initial residual = 0.0168573, Final residual = 6.07225e-05, No Iterations 2
Before T+T solve
BiCG:  Solving for T+T, Initial residual = 0.00338616, Final residual = 0.000331026, No Iterations 1
Tres = -0.934448
TsRes = -0.124986
ExecutionTime = 0.13 s



Wall heat fluxes [W]
movingWall 0 -3.08798e-14 0 -3.08798e-14
left 0.458903 -1.10995e-15 0 0.458903
right -1.39335 -5.97321e-15 0 -1.39335
bottom 0 0 0 0
frontAndBack 0 0 0 0
sum -0.934448 -3.7963e-14 0 -0.934448


Wall heat fluxes [W]
topAndBottom 0 0 0 0
left 1.41815 0 0 1.41815
right -1.54313 0 0 -1.54313
frontAndBack 0 0 0 0
sum -0.124986 0 0 -0.124986

Time = 55

DILUPBiCG:  Solving for Ux, Initial residual = 0.0389611, Final residual = 6.81864e-06, No Iterations 2
DILUPBiCG:  Solving for Uy, Initial residual = 0.0369608, Final residual = 0.000307804, No Iterations 1
DICPCG:  Solving for p_rgh, Initial residual = 0.0364762, Final residual = 0.000140275, No Iterations 12
time step continuity errors : sum local = 0.000412818, global = -5.64865e-16, cumulative = -3.79512e-14
DILUPBiCG:  Solving for epsilon, Initial residual = 0.0108542, Final residual = 2.42677e-05, No Iterations 2
DILUPBiCG:  Solving for k, Initial residual = 0.0184111, Final residual = 7.3219e-05, No Iterations 2
Before T+T solve
BiCG:  Solving for T+T, Initial residual = 0.00347799, Final residual = 0.000256624, No Iterations 3
Tres = -0.910113
TsRes = -0.13208
ExecutionTime = 0.13 s



Wall heat fluxes [W]
movingWall 0 -3.09899e-14 0 -3.09899e-14
left 0.467748 1.10995e-15 0 0.467748
right -1.37786 4.73287e-15 0 -1.37786
bottom 0 0 0 0
frontAndBack 0 0 0 0
sum -0.910113 -2.51471e-14 0 -0.910113


Wall heat fluxes [W]
topAndBottom 0 0 0 0
left 1.37891 0 0 1.37891
right -1.51099 0 0 -1.51099
frontAndBack 0 0 0 0
sum -0.13208 0 0 -0.13208

Time = 56

DILUPBiCG:  Solving for Ux, Initial residual = 0.0398614, Final residual = 7.49173e-06, No Iterations 2
DILUPBiCG:  Solving for Uy, Initial residual = 0.0377642, Final residual = 0.000333592, No Iterations 1
DICPCG:  Solving for p_rgh, Initial residual = 0.0414442, Final residual = 0.00015008, No Iterations 12
time step continuity errors : sum local = 0.000441153, global = -6.76038e-16, cumulative = -3.86272e-14
DILUPBiCG:  Solving for epsilon, Initial residual = 0.0118833, Final residual = 3.63144e-05, No Iterations 2
DILUPBiCG:  Solving for k, Initial residual = 0.0198742, Final residual = 0.000104411, No Iterations 2
Before T+T solve
BiCG:  Solving for T+T, Initial residual = 0.00365601, Final residual = 0.0003597, No Iterations 1
Tres = -0.871981
TsRes = -0.132996
ExecutionTime = 0.13 s



Wall heat fluxes [W]
movingWall 0 -3.10977e-14 0 -3.10977e-14
left 0.476691 0 0 0.476691
right -1.34867 2.25778e-15 0 -1.34867
bottom 0 0 0 0
frontAndBack 0 0 0 0
sum -0.871981 -2.88399e-14 0 -0.871981


Wall heat fluxes [W]
topAndBottom 0 0 0 0
left 1.37494 0 0 1.37494
right -1.50794 0 0 -1.50794
frontAndBack 0 0 0 0
sum -0.132996 0 0 -0.132996

Time = 57

DILUPBiCG:  Solving for Ux, Initial residual = 0.0386843, Final residual = 7.60619e-06, No Iterations 2
DILUPBiCG:  Solving for Uy, Initial residual = 0.0386129, Final residual = 0.000364853, No Iterations 1
DICPCG:  Solving for p_rgh, Initial residual = 0.0466788, Final residual = 0.000154112, No Iterations 12
time step continuity errors : sum local = 0.000457624, global = -7.15743e-16, cumulative = -3.93429e-14
DILUPBiCG:  Solving for epsilon, Initial residual = 0.0117772, Final residual = 8.48304e-05, No Iterations 2
DILUPBiCG:  Solving for k, Initial residual = 0.0197759, Final residual = 4.95321e-06, No Iterations 3
Before T+T solve
BiCG:  Solving for T+T, Initial residual = 0.00379287, Final residual = 0.000265517, No Iterations 3
Tres = -0.84674
TsRes = -0.140012
ExecutionTime = 0.13 s



Wall heat fluxes [W]
movingWall 0 -3.12237e-14 0 -3.12237e-14
left 0.485785 2.77488e-16 0 0.485785
right -1.33252 -8.99785e-16 0 -1.33252
bottom 0 0 0 0
frontAndBack 0 0 0 0
sum -0.84674 -3.1846e-14 0 -0.84674


Wall heat fluxes [W]
topAndBottom 0 0 0 0
left 1.33373 0 0 1.33373
right -1.47374 0 0 -1.47374
frontAndBack 0 0 0 0
sum -0.140012 0 0 -0.140012

Time = 58

DILUPBiCG:  Solving for Ux, Initial residual = 0.0391903, Final residual = 9.6119e-06, No Iterations 2
DILUPBiCG:  Solving for Uy, Initial residual = 0.039214, Final residual = 1.08972e-05, No Iterations 2
DICPCG:  Solving for p_rgh, Initial residual = 0.0459914, Final residual = 0.000165945, No Iterations 12
time step continuity errors : sum local = 0.000491841, global = -6.15158e-16, cumulative = -3.99581e-14
DILUPBiCG:  Solving for epsilon, Initial residual = 0.0123215, Final residual = 8.45943e-05, No Iterations 2
DILUPBiCG:  Solving for k, Initial residual = 0.021552, Final residual = 5.31038e-06, No Iterations 3
Before T+T solve
BiCG:  Solving for T+T, Initial residual = 0.00390919, Final residual = 0.000374349, No Iterations 1
Tres = -0.805264
TsRes = -0.142058
ExecutionTime = 0.13 s



Wall heat fluxes [W]
movingWall 0 -3.13569e-14 0 -3.13569e-14
left 0.495129 1.10995e-15 0 0.495129
right -1.30039 5.67467e-16 0 -1.30039
bottom 0 0 0 0
frontAndBack 0 0 0 0
sum -0.805264 -2.96795e-14 0 -0.805264


Wall heat fluxes [W]
topAndBottom 0 0 0 0
left 1.32842 0 0 1.32842
right -1.47048 0 0 -1.47048
frontAndBack 0 0 0 0
sum -0.142058 0 0 -0.142058

Time = 59

DILUPBiCG:  Solving for Ux, Initial residual = 0.0369956, Final residual = 9.69708e-06, No Iterations 2
DILUPBiCG:  Solving for Uy, Initial residual = 0.0395892, Final residual = 1.32536e-05, No Iterations 2
DICPCG:  Solving for p_rgh, Initial residual = 0.0458145, Final residual = 0.000151201, No Iterations 12
time step continuity errors : sum local = 0.000446684, global = -7.51746e-16, cumulative = -4.07098e-14
DILUPBiCG:  Solving for epsilon, Initial residual = 0.0135795, Final residual = 7.0924e-05, No Iterations 2
DILUPBiCG:  Solving for k, Initial residual = 0.0230203, Final residual = 6.26303e-06, No Iterations 3
Before T+T solve
BiCG:  Solving for T+T, Initial residual = 0.00397952, Final residual = 0.000275711, No Iterations 3
Tres = -0.774159
TsRes = -0.153433
ExecutionTime = 0.14 s



Wall heat fluxes [W]
movingWall 0 -3.15048e-14 0 -3.15048e-14
left 0.504716 -1.10995e-15 0 0.504716
right -1.27888 -4.52663e-16 0 -1.27888
bottom 0 0 0 0
frontAndBack 0 0 0 0
sum -0.774159 -3.30674e-14 0 -0.774159


Wall heat fluxes [W]
topAndBottom 0 0 0 0
left 1.28037 0 0 1.28037
right -1.4338 0 0 -1.4338
frontAndBack 0 0 0 0
sum -0.153433 0 0 -0.153433

Time = 60

DILUPBiCG:  Solving for Ux, Initial residual = 0.037187, Final residual = 1.49211e-05, No Iterations 2
DILUPBiCG:  Solving for Uy, Initial residual = 0.0400716, Final residual = 1.64959e-05, No Iterations 2
DICPCG:  Solving for p_rgh, Initial residual = 0.0507709, Final residual = 0.000177372, No Iterations 12
time step continuity errors : sum local = 0.000519911, global = -6.03511e-16, cumulative = -4.13134e-14
DILUPBiCG:  Solving for epsilon, Initial residual = 0.0148466, Final residual = 6.88262e-05, No Iterations 2
DILUPBiCG:  Solving for k, Initial residual = 0.0244568, Final residual = 7.48822e-06, No Iterations 3
Before T+T solve
BiCG:  Solving for T+T, Initial residual = 0.00408296, Final residual = 0.000407779, No Iterations 1
Tres = -0.725456
TsRes = -0.158956
ExecutionTime = 0.14 s



Wall heat fluxes [W]
movingWall 0 -3.16579e-14 0 -3.16579e-14
left 0.514566 4.7173e-15 0 0.514566
right -1.24002 9.06339e-16 0 -1.24002
bottom 0 0 0 0
frontAndBack 0 0 0 0
sum -0.725456 -2.60343e-14 0 -0.725456


Wall heat fluxes [W]
topAndBottom 0 0 0 0
left 1.27126 0 0 1.27126
right -1.43022 0 0 -1.43022
frontAndBack 0 0 0 0
sum -0.158956 0 0 -0.158956

Time = 61

DILUPBiCG:  Solving for Ux, Initial residual = 0.0346526, Final residual = 1.56353e-05, No Iterations 2
DILUPBiCG:  Solving for Uy, Initial residual = 0.0405782, Final residual = 2.08047e-05, No Iterations 2
DICPCG:  Solving for p_rgh, Initial residual = 0.0555727, Final residual = 0.000226665, No Iterations 12
time step continuity errors : sum local = 0.000664003, global = -8.59738e-16, cumulative = -4.21731e-14
DILUPBiCG:  Solving for epsilon, Initial residual = 0.0156993, Final residual = 7.31425e-05, No Iterations 2
DILUPBiCG:  Solving for k, Initial residual = 0.0261069, Final residual = 9.1078e-06, No Iterations 3
Before T+T solve
BiCG:  Solving for T+T, Initial residual = 0.00417683, Final residual = 0.000287983, No Iterations 3
Tres = -0.688662
TsRes = -0.173869
ExecutionTime = 0.14 s



Wall heat fluxes [W]
movingWall 0 -3.18152e-14 0 -3.18152e-14
left 0.524716 -3.88483e-15 0 0.524716
right -1.21338 -2.71836e-15 0 -1.21338
bottom 0 0 0 0
frontAndBack 0 0 0 0
sum -0.688662 -3.84183e-14 0 -0.688662


Wall heat fluxes [W]
topAndBottom 0 0 0 0
left 1.21534 0 0 1.21534
right -1.3892 0 0 -1.3892
frontAndBack 0 0 0 0
sum -0.173869 0 0 -0.173869

Time = 62

DILUPBiCG:  Solving for Ux, Initial residual = 0.0347995, Final residual = 5.57588e-05, No Iterations 2
DILUPBiCG:  Solving for Uy, Initial residual = 0.0410424, Final residual = 2.74904e-05, No Iterations 2
DICPCG:  Solving for p_rgh, Initial residual = 0.0583255, Final residual = 0.000264572, No Iterations 12
time step continuity errors : sum local = 0.000775415, global = -7.58094e-16, cumulative = -4.29312e-14
DILUPBiCG:  Solving for epsilon, Initial residual = 0.0162111, Final residual = 8.10083e-05, No Iterations 2
DILUPBiCG:  Solving for k, Initial residual = 0.0276946, Final residual = 1.10189e-05, No Iterations 3
Before T+T solve
BiCG:  Solving for T+T, Initial residual = 0.00427314, Final residual = 0.000421531, No Iterations 2
Tres = -0.635448
TsRes = -0.169886
ExecutionTime = 0.14 s



Wall heat fluxes [W]
movingWall 0 -3.19651e-14 0 -3.19651e-14
left 0.535295 -3.60734e-15 0 0.535295
right -1.17074 0 0 -1.17074
bottom 0 0 0 0
frontAndBack 0 0 0 0
sum -0.635448 -3.55724e-14 0 -0.635448


Wall heat fluxes [W]
topAndBottom 0 0 0 0
left 1.20665 0 0 1.20665
right -1.37654 0 0 -1.37654
frontAndBack 0 0 0 0
sum -0.169886 0 0 -0.169886

Time = 63

DILUPBiCG:  Solving for Ux, Initial residual = 0.0321538, Final residual = 2.26678e-05, No Iterations 2
DILUPBiCG:  Solving for Uy, Initial residual = 0.0410053, Final residual = 3.96045e-05, No Iterations 2
DICPCG:  Solving for p_rgh, Initial residual = 0.059506, Final residual = 0.000279746, No Iterations 12
time step continuity errors : sum local = 0.000808049, global = -6.25216e-16, cumulative = -4.35564e-14
DILUPBiCG:  Solving for epsilon, Initial residual = 0.0178449, Final residual = 9.03478e-05, No Iterations 2
DILUPBiCG:  Solving for k, Initial residual = 0.0302867, Final residual = 1.32365e-05, No Iterations 3
Before T+T solve
BiCG:  Solving for T+T, Initial residual = 0.00428273, Final residual = 0.000343083, No Iterations 3
Tres = -0.591554
TsRes = -0.186288
ExecutionTime = 0.14 s



Wall heat fluxes [W]
movingWall 0 -3.21203e-14 0 -3.21203e-14
left 0.546186 -2.77488e-15 0 0.546186
right -1.13774 9.07614e-15 0 -1.13774
bottom 0 0 0 0
frontAndBack 0 0 0 0
sum -0.591554 -2.5819e-14 0 -0.591554


Wall heat fluxes [W]
topAndBottom 0 0 0 0
left 1.14561 0 0 1.14561
right -1.3319 0 0 -1.3319
frontAndBack 0 0 0 0
sum -0.186288 0 0 -0.186288

Time = 64

DILUPBiCG:  Solving for Ux, Initial residual = 0.0319407, Final residual = 5.38663e-06, No Iterations 2
DILUPBiCG:  Solving for Uy, Initial residual = 0.0408725, Final residual = 5.45319e-05, No Iterations 2
DICPCG:  Solving for p_rgh, Initial residual = 0.0563797, Final residual = 0.00053643, No Iterations 11
time step continuity errors : sum local = 0.00154987, global = -7.72388e-16, cumulative = -4.43288e-14
DILUPBiCG:  Solving for epsilon, Initial residual = 0.0194582, Final residual = 9.92377e-05, No Iterations 2
DILUPBiCG:  Solving for k, Initial residual = 0.0323738, Final residual = 1.62252e-05, No Iterations 3
Before T+T solve
BiCG:  Solving for T+T, Initial residual = 0.00433933, Final residual = 0.000177623, No Iterations 3
Tres = -0.538004
TsRes = -0.147393
ExecutionTime = 0.15 s



Wall heat fluxes [W]
movingWall 0 -3.22668e-14 0 -3.22668e-14
left 0.557557 8.32464e-16 0 0.557557
right -1.09556 2.50136e-15 0 -1.09556
bottom 0 0 0 0
frontAndBack 0 0 0 0
sum -0.538004 -2.8933e-14 0 -0.538004


Wall heat fluxes [W]
topAndBottom 0 0 0 0
left 1.13371 0 0 1.13371
right -1.2811 0 0 -1.2811
frontAndBack 0 0 0 0
sum -0.147393 0 0 -0.147393

Time = 65

DILUPBiCG:  Solving for Ux, Initial residual = 0.0302539, Final residual = 2.94858e-06, No Iterations 2
DILUPBiCG:  Solving for Uy, Initial residual = 0.0410674, Final residual = 7.40668e-05, No Iterations 2
DICPCG:  Solving for p_rgh, Initial residual = 0.0644789, Final residual = 0.000606922, No Iterations 6
time step continuity errors : sum local = 0.00261203, global = -8.64503e-16, cumulative = -4.51933e-14
DILUPBiCG:  Solving for epsilon, Initial residual = 0.0209704, Final residual = 0.000107621, No Iterations 2
DILUPBiCG:  Solving for k, Initial residual = 0.0341812, Final residual = 1.97614e-05, No Iterations 3
Before T+T solve
BiCG:  Solving for T+T, Initial residual = 0.0042633, Final residual = 0.000254663, No Iterations 3
Tres = -0.498526
TsRes = -0.142451
ExecutionTime = 0.15 s



Wall heat fluxes [W]
movingWall 0 -3.24075e-14 0 -3.24075e-14
left 0.569285 -2.49739e-15 0 0.569285
right -1.06781 -4.09991e-15 0 -1.06781
bottom 0 0 0 0
frontAndBack 0 0 0 0
sum -0.498526 -3.90048e-14 0 -0.498526


Wall heat fluxes [W]
topAndBottom 0 0 0 0
left 1.10074 0 0 1.10074
right -1.24319 0 0 -1.24319
frontAndBack 0 0 0 0
sum -0.142451 0 0 -0.142451

Time = 66

DILUPBiCG:  Solving for Ux, Initial residual = 0.0289706, Final residual = 4.01221e-06, No Iterations 2
DILUPBiCG:  Solving for Uy, Initial residual = 0.041023, Final residual = 0.000116925, No Iterations 2
DICPCG:  Solving for p_rgh, Initial residual = 0.0640358, Final residual = 0.000564424, No Iterations 10
time step continuity errors : sum local = 0.00166961, global = -5.65924e-16, cumulative = -4.57592e-14
DILUPBiCG:  Solving for epsilon, Initial residual = 0.0220971, Final residual = 0.000113541, No Iterations 2
DILUPBiCG:  Solving for k, Initial residual = 0.0359732, Final residual = 2.50936e-05, No Iterations 3
Before T+T solve
BiCG:  Solving for T+T, Initial residual = 0.00418729, Final residual = 0.000329863, No Iterations 2
Tres = -0.472194
TsRes = -0.149545
ExecutionTime = 0.15 s



Wall heat fluxes [W]
movingWall 0 -3.25298e-14 0 -3.25298e-14
left 0.581359 3.88483e-15 0 0.581359
right -1.05355 2.28055e-15 0 -1.05355
bottom 0 0 0 0
frontAndBack 0 0 0 0
sum -0.472194 -2.63644e-14 0 -0.472194


Wall heat fluxes [W]
topAndBottom 0 0 0 0
left 1.08559 0 0 1.08559
right -1.23514 0 0 -1.23514
frontAndBack 0 0 0 0
sum -0.149545 0 0 -0.149545

Time = 67

DILUPBiCG:  Solving for Ux, Initial residual = 0.0279794, Final residual = 3.23913e-06, No Iterations 2
DILUPBiCG:  Solving for Uy, Initial residual = 0.0407396, Final residual = 2.90322e-07, No Iterations 3
DICPCG:  Solving for p_rgh, Initial residual = 0.0640543, Final residual = 0.000585593, No Iterations 6
time step continuity errors : sum local = 0.0026101, global = -5.56395e-16, cumulative = -4.63156e-14
DILUPBiCG:  Solving for epsilon, Initial residual = 0.0230112, Final residual = 0.000117858, No Iterations 2
DILUPBiCG:  Solving for k, Initial residual = 0.0380267, Final residual = 3.42383e-05, No Iterations 3
Before T+T solve
[...]
DILUPBiCG:  Solving for k, Initial residual = 3.51258e-09, Final residual = 2.20524e-11, No Iterations 2
Before T+T solve
BiCG:  Solving for T+T, Initial residual = 1.23181e-09, Final residual = 9.96112e-11, No Iterations 1
Tres = -5.71864e-07
TsRes = -3.30167e-08
ExecutionTime = 2.14 s



Wall heat fluxes [W]
movingWall 0 -3.34497e-14 0 -3.34497e-14
left 0.999605 -3.88483e-15 0 0.999605
right -0.999606 9.59805e-20 0 -0.999606
bottom 0 0 0 0
frontAndBack 0 0 0 0
sum -5.71864e-07 -3.73344e-14 0 -5.71864e-07


Wall heat fluxes [W]
topAndBottom 0 0 0 0
left 0.999606 0 0 0.999606
right -0.999606 0 0 -0.999606
frontAndBack 0 0 0 0
sum -3.30167e-08 0 0 -3.30167e-08

Time = 985

DILUPBiCG:  Solving for Ux, Initial residual = 0.0130012, Final residual = 3.8124e-06, No Iterations 2
DILUPBiCG:  Solving for Uy, Initial residual = 0.0361636, Final residual = 5.5403e-05, No Iterations 2
DICPCG:  Solving for p_rgh, Initial residual = 6.1285e-09, Final residual = 3.72256e-11, No Iterations 11
time step continuity errors : sum local = 1.02239e-10, global = -9.30148e-16, cumulative = -7.02686e-13
DILUPBiCG:  Solving for epsilon, Initial residual = 2.91388e-09, Final residual = 1.47013e-11, No Iterations 2
DILUPBiCG:  Solving for k, Initial residual = 3.46372e-09, Final residual = 2.19783e-11, No Iterations 2
Before T+T solve
BiCG:  Solving for T+T, Initial residual = 1.21682e-09, Final residual = 1.15436e-10, No Iterations 1
Tres = -5.63117e-07
TsRes = -4.22126e-08
ExecutionTime = 2.14 s



Wall heat fluxes [W]
movingWall 0 -3.34497e-14 0 -3.34497e-14
left 0.999605 -4.7173e-15 0 0.999605
right -0.999606 -1.38153e-15 0 -0.999606
bottom 0 0 0 0
frontAndBack 0 0 0 0
sum -5.63117e-07 -3.95485e-14 0 -5.63117e-07


Wall heat fluxes [W]
topAndBottom 0 0 0 0
left 0.999606 0 0 0.999606
right -0.999606 0 0 -0.999606
frontAndBack 0 0 0 0
sum -4.22126e-08 0 0 -4.22126e-08

Time = 986

DILUPBiCG:  Solving for Ux, Initial residual = 0.0130012, Final residual = 3.8124e-06, No Iterations 2
DILUPBiCG:  Solving for Uy, Initial residual = 0.0361636, Final residual = 5.5403e-05, No Iterations 2
DICPCG:  Solving for p_rgh, Initial residual = 5.80405e-09, Final residual = 5.37831e-11, No Iterations 10
time step continuity errors : sum local = 1.43109e-10, global = -5.59042e-16, cumulative = -7.03245e-13
DILUPBiCG:  Solving for epsilon, Initial residual = 2.86551e-09, Final residual = 1.43081e-11, No Iterations 2
DILUPBiCG:  Solving for k, Initial residual = 3.41046e-09, Final residual = 2.14131e-11, No Iterations 2
Before T+T solve
BiCG:  Solving for T+T, Initial residual = 1.20006e-09, Final residual = 1.16338e-10, No Iterations 1
Tres = -5.54401e-07
TsRes = -4.30387e-08
ExecutionTime = 2.15 s



Wall heat fluxes [W]
movingWall 0 -3.34497e-14 0 -3.34497e-14
left 0.999605 5.82725e-15 0 0.999605
right -0.999606 -1.44241e-18 0 -0.999606
bottom 0 0 0 0
frontAndBack 0 0 0 0
sum -5.54401e-07 -2.76239e-14 0 -5.54401e-07


Wall heat fluxes [W]
topAndBottom 0 0 0 0
left 0.999606 0 0 0.999606
right -0.999606 0 0 -0.999606
frontAndBack 0 0 0 0
sum -4.30387e-08 0 0 -4.30387e-08

Time = 987

DILUPBiCG:  Solving for Ux, Initial residual = 0.0130012, Final residual = 3.8124e-06, No Iterations 2
DILUPBiCG:  Solving for Uy, Initial residual = 0.0361636, Final residual = 5.5403e-05, No Iterations 2
DICPCG:  Solving for p_rgh, Initial residual = 5.65126e-09, Final residual = 5.038e-11, No Iterations 10
time step continuity errors : sum local = 1.34442e-10, global = -7.618e-16, cumulative = -7.04007e-13
DILUPBiCG:  Solving for epsilon, Initial residual = 2.81853e-09, Final residual = 1.40746e-11, No Iterations 2
DILUPBiCG:  Solving for k, Initial residual = 3.36127e-09, Final residual = 2.0962e-11, No Iterations 2
Before T+T solve
BiCG:  Solving for T+T, Initial residual = 1.18567e-09, Final residual = 1.18543e-10, No Iterations 1
Tres = -5.45894e-07
TsRes = -4.4662e-08
ExecutionTime = 2.15 s



Wall heat fluxes [W]
movingWall 0 -3.34497e-14 0 -3.34497e-14
left 0.999605 -2.2199e-15 0 0.999605
right -0.999606 -4.61231e-16 0 -0.999606
bottom 0 0 0 0
frontAndBack 0 0 0 0
sum -5.45894e-07 -3.61308e-14 0 -5.45894e-07


Wall heat fluxes [W]
topAndBottom 0 0 0 0
left 0.999606 0 0 0.999606
right -0.999606 0 0 -0.999606
frontAndBack 0 0 0 0
sum -4.4662e-08 0 0 -4.4662e-08

Time = 988

DILUPBiCG:  Solving for Ux, Initial residual = 0.0130012, Final residual = 3.8124e-06, No Iterations 2
DILUPBiCG:  Solving for Uy, Initial residual = 0.0361636, Final residual = 5.5403e-05, No Iterations 2
DICPCG:  Solving for p_rgh, Initial residual = 5.57985e-09, Final residual = 5.30839e-11, No Iterations 10
time step continuity errors : sum local = 1.41194e-10, global = -6.09864e-16, cumulative = -7.04616e-13
DILUPBiCG:  Solving for epsilon, Initial residual = 2.77311e-09, Final residual = 1.39073e-11, No Iterations 2
DILUPBiCG:  Solving for k, Initial residual = 3.31357e-09, Final residual = 2.0595e-11, No Iterations 2
Before T+T solve
BiCG:  Solving for T+T, Initial residual = 1.1713e-09, Final residual = 5.60789e-11, No Iterations 3
Tres = -5.39973e-07
TsRes = -3.53223e-08
ExecutionTime = 2.15 s



Wall heat fluxes [W]
movingWall 0 -3.34497e-14 0 -3.34497e-14
left 0.999605 5.54976e-16 0 0.999605
right -0.999606 2.76983e-15 0 -0.999606
bottom 0 0 0 0
frontAndBack 0 0 0 0
sum -5.39973e-07 -3.01249e-14 0 -5.39973e-07


Wall heat fluxes [W]
topAndBottom 0 0 0 0
left 0.999606 0 0 0.999606
right -0.999606 0 0 -0.999606
frontAndBack 0 0 0 0
sum -3.53223e-08 0 0 -3.53223e-08

Time = 989

DILUPBiCG:  Solving for Ux, Initial residual = 0.0130012, Final residual = 3.8124e-06, No Iterations 2
DILUPBiCG:  Solving for Uy, Initial residual = 0.0361636, Final residual = 5.5403e-05, No Iterations 2
DICPCG:  Solving for p_rgh, Initial residual = 5.76476e-09, Final residual = 2.89424e-11, No Iterations 11
time step continuity errors : sum local = 7.94051e-11, global = -6.83979e-16, cumulative = -7.053e-13
DILUPBiCG:  Solving for epsilon, Initial residual = 2.73881e-09, Final residual = 1.38203e-11, No Iterations 2
DILUPBiCG:  Solving for k, Initial residual = 3.26933e-09, Final residual = 2.02879e-11, No Iterations 2
Before T+T solve
BiCG:  Solving for T+T, Initial residual = 1.1438e-09, Final residual = 9.22107e-11, No Iterations 1
Tres = -5.31388e-07
TsRes = -3.06127e-08
ExecutionTime = 2.15 s



Wall heat fluxes [W]
movingWall 0 -3.34497e-14 0 -3.34497e-14
left 0.999605 2.2199e-15 0 0.999605
right -0.999606 -2.30871e-15 0 -0.999606
bottom 0 0 0 0
frontAndBack 0 0 0 0
sum -5.31388e-07 -3.35385e-14 0 -5.31388e-07


Wall heat fluxes [W]
topAndBottom 0 0 0 0
left 0.999606 0 0 0.999606
right -0.999606 0 0 -0.999606
frontAndBack 0 0 0 0
sum -3.06127e-08 0 0 -3.06127e-08

Time = 990

DILUPBiCG:  Solving for Ux, Initial residual = 0.0130012, Final residual = 3.8124e-06, No Iterations 2
DILUPBiCG:  Solving for Uy, Initial residual = 0.0361636, Final residual = 5.5403e-05, No Iterations 2
DICPCG:  Solving for p_rgh, Initial residual = 5.60536e-09, Final residual = 3.69963e-11, No Iterations 11
time step continuity errors : sum local = 1.01655e-10, global = -6.76568e-16, cumulative = -7.05977e-13
DILUPBiCG:  Solving for epsilon, Initial residual = 2.70867e-09, Final residual = 1.36811e-11, No Iterations 2
DILUPBiCG:  Solving for k, Initial residual = 3.223e-09, Final residual = 2.02839e-11, No Iterations 2
Before T+T solve
BiCG:  Solving for T+T, Initial residual = 1.12903e-09, Final residual = 1.06532e-10, No Iterations 1
Tres = -5.23336e-07
TsRes = -3.89694e-08
ExecutionTime = 2.15 s



Wall heat fluxes [W]
movingWall 0 -3.34497e-14 0 -3.34497e-14
left 0.999605 2.2199e-15 0 0.999605
right -0.999606 2.77151e-15 0 -0.999606
bottom 0 0 0 0
frontAndBack 0 0 0 0
sum -5.23336e-07 -2.84583e-14 0 -5.23336e-07


Wall heat fluxes [W]
topAndBottom 0 0 0 0
left 0.999606 0 0 0.999606
right -0.999606 0 0 -0.999606
frontAndBack 0 0 0 0
sum -3.89694e-08 0 0 -3.89694e-08

Time = 991

DILUPBiCG:  Solving for Ux, Initial residual = 0.0130012, Final residual = 3.8124e-06, No Iterations 2
DILUPBiCG:  Solving for Uy, Initial residual = 0.0361636, Final residual = 5.5403e-05, No Iterations 2
DICPCG:  Solving for p_rgh, Initial residual = 5.37168e-09, Final residual = 5.07235e-11, No Iterations 10
time step continuity errors : sum local = 1.34863e-10, global = -8.65562e-16, cumulative = -7.06842e-13
DILUPBiCG:  Solving for epsilon, Initial residual = 2.66288e-09, Final residual = 1.33372e-11, No Iterations 2
DILUPBiCG:  Solving for k, Initial residual = 3.17214e-09, Final residual = 1.9864e-11, No Iterations 2
Before T+T solve
BiCG:  Solving for T+T, Initial residual = 1.11422e-09, Final residual = 1.07424e-10, No Iterations 1
Tres = -5.15318e-07
TsRes = -3.97713e-08
ExecutionTime = 2.16 s



Wall heat fluxes [W]
movingWall 0 -3.34497e-14 0 -3.34497e-14
left 0.999605 -9.1571e-15 0 0.999605
right -0.999606 2.77132e-15 0 -0.999606
bottom 0 0 0 0
frontAndBack 0 0 0 0
sum -5.15318e-07 -3.98355e-14 0 -5.15318e-07


Wall heat fluxes [W]
topAndBottom 0 0 0 0
left 0.999606 0 0 0.999606
right -0.999606 0 0 -0.999606
frontAndBack 0 0 0 0
sum -3.97713e-08 0 0 -3.97713e-08

Time = 992

DILUPBiCG:  Solving for Ux, Initial residual = 0.0130012, Final residual = 3.8124e-06, No Iterations 2
DILUPBiCG:  Solving for Uy, Initial residual = 0.0361636, Final residual = 5.5403e-05, No Iterations 2
DICPCG:  Solving for p_rgh, Initial residual = 5.23433e-09, Final residual = 4.71065e-11, No Iterations 10
time step continuity errors : sum local = 1.25662e-10, global = -5.1669e-16, cumulative = -7.07359e-13
DILUPBiCG:  Solving for epsilon, Initial residual = 2.61966e-09, Final residual = 1.31373e-11, No Iterations 2
DILUPBiCG:  Solving for k, Initial residual = 3.12558e-09, Final residual = 1.95085e-11, No Iterations 2
Before T+T solve
BiCG:  Solving for T+T, Initial residual = 1.10137e-09, Final residual = 1.09424e-10, No Iterations 1
Tres = -5.07483e-07
TsRes = -4.12347e-08
ExecutionTime = 2.16 s



Wall heat fluxes [W]
movingWall 0 -3.34497e-14 0 -3.34497e-14
left 0.999605 4.7173e-15 0 0.999605
right -0.999606 9.23969e-16 0 -0.999606
bottom 0 0 0 0
frontAndBack 0 0 0 0
sum -5.07483e-07 -2.78084e-14 0 -5.07483e-07


Wall heat fluxes [W]
topAndBottom 0 0 0 0
left 0.999606 0 0 0.999606
right -0.999606 0 0 -0.999606
frontAndBack 0 0 0 0
sum -4.12347e-08 0 0 -4.12347e-08

Time = 993

DILUPBiCG:  Solving for Ux, Initial residual = 0.0130012, Final residual = 3.8124e-06, No Iterations 2
DILUPBiCG:  Solving for Uy, Initial residual = 0.0361636, Final residual = 5.5403e-05, No Iterations 2
DICPCG:  Solving for p_rgh, Initial residual = 5.16889e-09, Final residual = 5.01204e-11, No Iterations 10
time step continuity errors : sum local = 1.33206e-10, global = -8.20034e-16, cumulative = -7.08179e-13
DILUPBiCG:  Solving for epsilon, Initial residual = 2.57834e-09, Final residual = 1.29943e-11, No Iterations 2
DILUPBiCG:  Solving for k, Initial residual = 3.08081e-09, Final residual = 1.91961e-11, No Iterations 2
Before T+T solve
BiCG:  Solving for T+T, Initial residual = 1.08848e-09, Final residual = 5.17497e-11, No Iterations 3
Tres = -5.02028e-07
TsRes = -3.26207e-08
ExecutionTime = 2.16 s



Wall heat fluxes [W]
movingWall 0 -3.34497e-14 0 -3.34497e-14
left 0.999605 -5.54976e-16 0 0.999605
right -0.999606 9.24999e-16 0 -0.999606
bottom 0 0 0 0
frontAndBack 0 0 0 0
sum -5.02028e-07 -3.30797e-14 0 -5.02028e-07


Wall heat fluxes [W]
topAndBottom 0 0 0 0
left 0.999606 0 0 0.999606
right -0.999606 0 0 -0.999606
frontAndBack 0 0 0 0
sum -3.26207e-08 0 0 -3.26207e-08

Time = 994

DILUPBiCG:  Solving for Ux, Initial residual = 0.0130012, Final residual = 3.8124e-06, No Iterations 2
DILUPBiCG:  Solving for Uy, Initial residual = 0.0361636, Final residual = 5.5403e-05, No Iterations 2
DICPCG:  Solving for p_rgh, Initial residual = 5.35071e-09, Final residual = 2.83651e-11, No Iterations 11
time step continuity errors : sum local = 7.78397e-11, global = -6.87685e-16, cumulative = -7.08867e-13
DILUPBiCG:  Solving for epsilon, Initial residual = 2.54646e-09, Final residual = 1.29106e-11, No Iterations 2
DILUPBiCG:  Solving for k, Initial residual = 3.03898e-09, Final residual = 1.89146e-11, No Iterations 2
Before T+T solve
BiCG:  Solving for T+T, Initial residual = 1.06335e-09, Final residual = 8.519e-11, No Iterations 1
Tres = -4.9411e-07
TsRes = -2.82565e-08
ExecutionTime = 2.16 s



Wall heat fluxes [W]
movingWall 0 -3.34497e-14 0 -3.34497e-14
left 0.999605 1.66493e-15 0 0.999605
right -0.999606 -4.5937e-16 0 -0.999606
bottom 0 0 0 0
frontAndBack 0 0 0 0
sum -4.9411e-07 -3.22441e-14 0 -4.9411e-07


Wall heat fluxes [W]
topAndBottom 0 0 0 0
left 0.999606 0 0 0.999606
right -0.999606 0 0 -0.999606
frontAndBack 0 0 0 0
sum -2.82565e-08 0 0 -2.82565e-08

Time = 995

DILUPBiCG:  Solving for Ux, Initial residual = 0.0130012, Final residual = 3.8124e-06, No Iterations 2
DILUPBiCG:  Solving for Uy, Initial residual = 0.0361636, Final residual = 5.5403e-05, No Iterations 2
DICPCG:  Solving for p_rgh, Initial residual = 5.20175e-09, Final residual = 3.58255e-11, No Iterations 11
time step continuity errors : sum local = 9.84528e-11, global = -7.63918e-16, cumulative = -7.09631e-13
DILUPBiCG:  Solving for epsilon, Initial residual = 2.51797e-09, Final residual = 1.27635e-11, No Iterations 2
DILUPBiCG:  Solving for k, Initial residual = 2.9951e-09, Final residual = 1.89059e-11, No Iterations 2
Before T+T solve
BiCG:  Solving for T+T, Initial residual = 1.04987e-09, Final residual = 9.84099e-11, No Iterations 1
Tres = -4.86671e-07
TsRes = -3.59504e-08
ExecutionTime = 2.17 s



Wall heat fluxes [W]
movingWall 0 -3.34497e-14 0 -3.34497e-14
left 0.999605 -7.21469e-15 0 0.999605
right -0.999606 7.38302e-15 0 -0.999606
bottom 0 0 0 0
frontAndBack 0 0 0 0
sum -4.86671e-07 -3.32814e-14 0 -4.86671e-07


Wall heat fluxes [W]
topAndBottom 0 0 0 0
left 0.999606 0 0 0.999606
right -0.999606 0 0 -0.999606
frontAndBack 0 0 0 0
sum -3.59504e-08 0 0 -3.59504e-08

Time = 996

DILUPBiCG:  Solving for Ux, Initial residual = 0.0130012, Final residual = 3.8124e-06, No Iterations 2
DILUPBiCG:  Solving for Uy, Initial residual = 0.0361636, Final residual = 5.5403e-05, No Iterations 2
DICPCG:  Solving for p_rgh, Initial residual = 5.00112e-09, Final residual = 4.83494e-11, No Iterations 10
time step continuity errors : sum local = 1.28438e-10, global = -8.79326e-16, cumulative = -7.1051e-13
DILUPBiCG:  Solving for epsilon, Initial residual = 2.47474e-09, Final residual = 1.24204e-11, No Iterations 2
DILUPBiCG:  Solving for k, Initial residual = 2.94691e-09, Final residual = 1.85068e-11, No Iterations 2
Before T+T solve
BiCG:  Solving for T+T, Initial residual = 1.03622e-09, Final residual = 9.92603e-11, No Iterations 1
Tres = -4.79252e-07
TsRes = -3.66879e-08
ExecutionTime = 2.17 s



Wall heat fluxes [W]
movingWall 0 -3.34497e-14 0 -3.34497e-14
left 0.999605 -3.60734e-15 0 0.999605
right -0.999606 -9.22197e-16 0 -0.999606
bottom 0 0 0 0
frontAndBack 0 0 0 0
sum -4.79252e-07 -3.79792e-14 0 -4.79252e-07


Wall heat fluxes [W]
topAndBottom 0 0 0 0
left 0.999606 0 0 0.999606
right -0.999606 0 0 -0.999606
frontAndBack 0 0 0 0
sum -3.66879e-08 0 0 -3.66879e-08

Time = 997

DILUPBiCG:  Solving for Ux, Initial residual = 0.0130012, Final residual = 3.8124e-06, No Iterations 2
DILUPBiCG:  Solving for Uy, Initial residual = 0.0361636, Final residual = 5.5403e-05, No Iterations 2
DICPCG:  Solving for p_rgh, Initial residual = 4.87911e-09, Final residual = 4.44756e-11, No Iterations 10
time step continuity errors : sum local = 1.18586e-10, global = -7.64447e-16, cumulative = -7.11275e-13
DILUPBiCG:  Solving for epsilon, Initial residual = 2.43366e-09, Final residual = 1.22122e-11, No Iterations 2
DILUPBiCG:  Solving for k, Initial residual = 2.90264e-09, Final residual = 1.81627e-11, No Iterations 2
Before T+T solve
BiCG:  Solving for T+T, Initial residual = 1.0243e-09, Final residual = 1.01142e-10, No Iterations 1
Tres = -4.71988e-07
TsRes = -3.8044e-08
ExecutionTime = 2.17 s



Wall heat fluxes [W]
movingWall 0 -3.34497e-14 0 -3.34497e-14
left 0.999605 -1.10995e-15 0 0.999605
right -0.999606 -3.22946e-15 0 -0.999606
bottom 0 0 0 0
frontAndBack 0 0 0 0
sum -4.71988e-07 -3.77891e-14 0 -4.71988e-07


Wall heat fluxes [W]
topAndBottom 0 0 0 0
left 0.999606 0 0 0.999606
right -0.999606 0 0 -0.999606
frontAndBack 0 0 0 0
sum -3.8044e-08 0 0 -3.8044e-08

Time = 998

DILUPBiCG:  Solving for Ux, Initial residual = 0.0130012, Final residual = 3.8124e-06, No Iterations 2
DILUPBiCG:  Solving for Uy, Initial residual = 0.0361636, Final residual = 5.5403e-05, No Iterations 2
DICPCG:  Solving for p_rgh, Initial residual = 4.82086e-09, Final residual = 4.72745e-11, No Iterations 10
time step continuity errors : sum local = 1.25586e-10, global = -6.8292e-16, cumulative = -7.11958e-13
DILUPBiCG:  Solving for epsilon, Initial residual = 2.39448e-09, Final residual = 1.20621e-11, No Iterations 2
DILUPBiCG:  Solving for k, Initial residual = 2.86024e-09, Final residual = 1.7857e-11, No Iterations 2
Before T+T solve
BiCG:  Solving for T+T, Initial residual = 1.01225e-09, Final residual = 4.79872e-11, No Iterations 3
Tres = -4.66908e-07
TsRes = -3.01115e-08
ExecutionTime = 2.17 s



Wall heat fluxes [W]
movingWall 0 -3.34497e-14 0 -3.34497e-14
left 0.999605 -8.32464e-16 0 0.999605
right -0.999606 -9.25212e-16 0 -0.999606
bottom 0 0 0 0
frontAndBack 0 0 0 0
sum -4.66908e-07 -3.52074e-14 0 -4.66908e-07


Wall heat fluxes [W]
topAndBottom 0 0 0 0
left 0.999606 0 0 0.999606
right -0.999606 0 0 -0.999606
frontAndBack 0 0 0 0
sum -3.01115e-08 0 0 -3.01115e-08

Time = 999

DILUPBiCG:  Solving for Ux, Initial residual = 0.0130012, Final residual = 3.8124e-06, No Iterations 2
DILUPBiCG:  Solving for Uy, Initial residual = 0.0361636, Final residual = 5.5403e-05, No Iterations 2
DICPCG:  Solving for p_rgh, Initial residual = 4.99452e-09, Final residual = 2.70963e-11, No Iterations 11
time step continuity errors : sum local = 7.43638e-11, global = -7.97799e-16, cumulative = -7.12755e-13
DILUPBiCG:  Solving for epsilon, Initial residual = 2.36434e-09, Final residual = 1.1972e-11, No Iterations 2
DILUPBiCG:  Solving for k, Initial residual = 2.82099e-09, Final residual = 1.75808e-11, No Iterations 2
Before T+T solve
BiCG:  Solving for T+T, Initial residual = 9.89013e-10, Final residual = 7.88814e-11, No Iterations 1
Tres = -4.59547e-07
TsRes = -2.61046e-08
ExecutionTime = 2.17 s



Wall heat fluxes [W]
movingWall 0 -3.34497e-14 0 -3.34497e-14
left 0.999605 -4.99478e-15 0 0.999605
right -0.999606 1.38305e-15 0 -0.999606
bottom 0 0 0 0
frontAndBack 0 0 0 0
sum -4.59547e-07 -3.70614e-14 0 -4.59547e-07


Wall heat fluxes [W]
topAndBottom 0 0 0 0
left 0.999606 0 0 0.999606
right -0.999606 0 0 -0.999606
frontAndBack 0 0 0 0
sum -2.61046e-08 0 0 -2.61046e-08

Time = 1000

DILUPBiCG:  Solving for Ux, Initial residual = 0.0130012, Final residual = 3.8124e-06, No Iterations 2
DILUPBiCG:  Solving for Uy, Initial residual = 0.0361636, Final residual = 5.5403e-05, No Iterations 2
DICPCG:  Solving for p_rgh, Initial residual = 4.85717e-09, Final residual = 3.38408e-11, No Iterations 11
time step continuity errors : sum local = 9.30064e-11, global = -6.52215e-16, cumulative = -7.13408e-13
DILUPBiCG:  Solving for epsilon, Initial residual = 2.33762e-09, Final residual = 1.18289e-11, No Iterations 2
DILUPBiCG:  Solving for k, Initial residual = 2.78002e-09, Final residual = 1.75611e-11, No Iterations 2
Before T+T solve
BiCG:  Solving for T+T, Initial residual = 9.76256e-10, Final residual = 9.11207e-11, No Iterations 1
Tres = -4.52623e-07
TsRes = -3.32235e-08
ExecutionTime = 2.18 s



Wall heat fluxes [W]
movingWall 0 -3.34497e-14 0 -3.34497e-14
left 0.999605 8.32464e-16 0 0.999605
right -0.999606 4.56841e-16 0 -0.999606
bottom 0 0 0 0
frontAndBack 0 0 0 0
sum -4.52623e-07 -3.21604e-14 0 -4.52623e-07


Wall heat fluxes [W]
topAndBottom 0 0 0 0
left 0.999606 0 0 0.999606
right -0.999606 0 0 -0.999606
frontAndBack 0 0 0 0
sum -3.32235e-08 0 0 -3.32235e-08

End

