/*---------------------------------------------------------------------------*\
| =========                 |                                                 |
| \\      /  F ield         | OpenFOAM Extend Project: Open source CFD        |
|  \\    /   O peration     | Version:  1.6-ext                               |
|   \\  /    A nd           | Web:      www.extend-project.de                 |
|    \\/     M anipulation  |                                                 |
\*---------------------------------------------------------------------------*/
Build  : 1.6-ext-62b0c9cdf665
Exec   : chipAirCoolingSimpleFoam
Date   : Oct 21 2011
Time   : 15:22:32
Host   : galerius
PID    : 3270
Case   : /home/henrus/projects/ChipAirCooling/run/tutorial1/conjugateContactCavity
nProcs : 1
SigFpe : Enabling floating point exception trapping (FOAM_SIGFPE).

// * * * * * * * * * * * * * * * * * * * * * * * * * * * * * * * * * * * * * //
Create time

Create mesh for time = 0


    From function void polyMesh::initMesh()
    in file meshes/polyMesh/polyMeshInitMesh.C at line 82
    Truncating neighbour list at 180 for backward compatibility

Reading g
Reading transportProperties

Calculating field g.h

Reading field p_rgh

Reading field U

Reading field T

Reading/calculating face flux field phi

Selecting incompressible transport model Newtonian
Selecting RAS turbulence model kEpsilon
kEpsilonCoeffs
{
    Cmu             0.09;
    C1              1.44;
    C2              1.92;
    alphaEps        0.76923;
    sigmaEps        1.3;
}

Reading field kappaEff

Creating radiation model

Selecting radiationModel P1
Selecting absorptionEmissionModel constantAbsorptionEmission
Selecting scatterModel constantScatter
Reading field Tsolid

Reading solid thermal properties
Selecting thermal model multiMaterialZones
Selecting thermal model constant
Selecting thermal model constant
Selecting thermal gap model constant
Reading solid diffusivity k


Starting time loop

--> FOAM Warning : 
    From function dlLibraryTable::open(const dictionary& dict, const word& libsEntry, const TablePtr tablePtr)
    in file lnInclude/dlLibraryTableTemplates.C at line 68
    library "libairbusMaterialModels.so" did not introduce any new entries

Time = 1

DILUPBiCG:  Solving for Ux, Initial residual = 1, Final residual = 9.86721e-05, No Iterations 2
DILUPBiCG:  Solving for Uy, Initial residual = 1, Final residual = 0.000204448, No Iterations 2
DICPCG:  Solving for p_rgh, Initial residual = 1, Final residual = 0.00982502, No Iterations 6
time step continuity errors : sum local = 0.00311453, global = -1.32349e-19, cumulative = -1.32349e-19
DILUPBiCG:  Solving for epsilon, Initial residual = 0.0778347, Final residual = 0.000142816, No Iterations 2
DILUPBiCG:  Solving for k, Initial residual = 1, Final residual = 0.00248998, No Iterations 2
DICPCG:  Solving for G, Initial residual = 1, Final residual = 0.0255384, No Iterations 11
Before T+T solve
BiCG:  Solving for T+T, Initial residual = 0.311432, Final residual = 0.027659, No Iterations 3
Tres = -1.46041
TsRes = -17.0509
ExecutionTime = 0.02 s



Wall heat fluxes [W]
movingWall 0.00974439 0 8.04921e-07 0.00974519
left 6.59168e-07 0 -1.20093e-06 -5.41764e-07
right -1.48042 0 8.04921e-07 -1.48041
bottom 0.0102606 0 -1.20093e-06 0.0102594
frontAndBack 0 0 0 0
sum -1.46041 0 -7.92022e-07 -1.46041


Wall heat fluxes [W]
topAndBottom 0 0 0 0
left 1.48445 0 0 1.48445
right -18.5353 0 0 -18.5353
frontAndBack 0 0 0 0
sum -17.0509 0 0 -17.0509

Time = 2

DILUPBiCG:  Solving for Ux, Initial residual = 0.915164, Final residual = 0.00772324, No Iterations 1
DILUPBiCG:  Solving for Uy, Initial residual = 0.5615, Final residual = 0.00530737, No Iterations 1
DICPCG:  Solving for p_rgh, Initial residual = 0.946461, Final residual = 0.0072107, No Iterations 5
time step continuity errors : sum local = 0.0207271, global = -5.02926e-16, cumulative = -5.03058e-16
DILUPBiCG:  Solving for epsilon, Initial residual = 0.0203034, Final residual = 2.59066e-05, No Iterations 2
DILUPBiCG:  Solving for k, Initial residual = 0.663216, Final residual = 0.00076976, No Iterations 2
DICPCG:  Solving for G, Initial residual = 0.994926, Final residual = 0.0334712, No Iterations 13
Before T+T solve
BiCG:  Solving for T+T, Initial residual = 0.0315089, Final residual = 0.00153872, No Iterations 5
Tres = -1.42129
TsRes = -5.47103
ExecutionTime = 0.02 s



Wall heat fluxes [W]
movingWall -0.253008 7.41765e-17 0.368388 0.11538
left 0.0102749 -1.32317e-22 0.385813 0.396088
right -0.939146 -2.24236e-14 -1.12142 -2.06057
bottom -0.239413 0 0.367225 0.127812
frontAndBack 0 0 0 0
sum -1.42129 -2.23494e-14 3.03535e-06 -1.42129


Wall heat fluxes [W]
topAndBottom 0 0 0 0
left 2.00828 0 0 2.00828
right -7.47931 0 0 -7.47931
frontAndBack 0 0 0 0
sum -5.47103 0 0 -5.47103

Time = 3

DILUPBiCG:  Solving for Ux, Initial residual = 0.398788, Final residual = 0.00340931, No Iterations 1
DILUPBiCG:  Solving for Uy, Initial residual = 0.701139, Final residual = 0.00581403, No Iterations 1
DICPCG:  Solving for p_rgh, Initial residual = 0.393134, Final residual = 0.00256086, No Iterations 6
time step continuity errors : sum local = 0.0156442, global = 3.79775e-16, cumulative = -1.23283e-16
DILUPBiCG:  Solving for epsilon, Initial residual = 0.0779346, Final residual = 4.6495e-05, No Iterations 2
DILUPBiCG:  Solving for k, Initial residual = 0.211086, Final residual = 0.000244165, No Iterations 2
DICPCG:  Solving for G, Initial residual = 0.166604, Final residual = 0.00674288, No Iterations 11
Before T+T solve
BiCG:  Solving for T+T, Initial residual = 0.00836476, Final residual = 0.000381202, No Iterations 5
Tres = -1.34527
TsRes = -2.92846
ExecutionTime = 0.02 s



Wall heat fluxes [W]
movingWall -0.222653 2.99347e-15 0.226683 0.0040305
left 0.0137134 2.15466e-16 0.507282 0.520996
right -0.9401 1.28139e-14 -0.927143 -1.86724
bottom -0.196235 0 0.19317 -0.00306468
frontAndBack 0 0 0 0
sum -1.34527 1.60229e-14 -7.83811e-06 -1.34528


Wall heat fluxes [W]
topAndBottom 0 0 0 0
left 2.23977 0 0 2.23977
right -5.16823 0 0 -5.16823
frontAndBack 0 0 0 0
sum -2.92846 0 0 -2.92846

Time = 4

DILUPBiCG:  Solving for Ux, Initial residual = 0.233753, Final residual = 0.00225081, No Iterations 1
DILUPBiCG:  Solving for Uy, Initial residual = 0.377919, Final residual = 0.00285415, No Iterations 1
DICPCG:  Solving for p_rgh, Initial residual = 0.152695, Final residual = 0.0011721, No Iterations 10
time step continuity errors : sum local = 0.00544124, global = 1.73642e-16, cumulative = 5.03588e-17
DILUPBiCG:  Solving for epsilon, Initial residual = 0.120088, Final residual = 0.000104712, No Iterations 2
DILUPBiCG:  Solving for k, Initial residual = 0.123376, Final residual = 0.000133448, No Iterations 2
DICPCG:  Solving for G, Initial residual = 0.092977, Final residual = 0.00303263, No Iterations 13
Before T+T solve
BiCG:  Solving for T+T, Initial residual = 0.0053272, Final residual = 0.000183967, No Iterations 5
Tres = -1.49549
TsRes = -1.74313
ExecutionTime = 0.03 s



Wall heat fluxes [W]
movingWall -0.26785 3.68852e-15 0.302471 0.0346214
left 0.0183214 -1.35492e-18 0.590374 0.608695
right -0.99974 3.5908e-15 -1.17594 -2.17568
bottom -0.246221 0 0.283097 0.0368751
frontAndBack 0 0 0 0
sum -1.49549 7.27796e-15 5.45507e-07 -1.49549


Wall heat fluxes [W]
topAndBottom 0 0 0 0
left 2.5045 0 0 2.5045
right -4.24763 0 0 -4.24763
frontAndBack 0 0 0 0
sum -1.74313 0 0 -1.74313

Time = 5

DILUPBiCG:  Solving for Ux, Initial residual = 0.156087, Final residual = 0.00131526, No Iterations 1
DILUPBiCG:  Solving for Uy, Initial residual = 0.196314, Final residual = 1.21414e-05, No Iterations 2
DICPCG:  Solving for p_rgh, Initial residual = 0.10644, Final residual = 0.00092354, No Iterations 10
time step continuity errors : sum local = 0.00396462, global = 1.23084e-16, cumulative = 1.73443e-16
DILUPBiCG:  Solving for epsilon, Initial residual = 0.133883, Final residual = 0.000122715, No Iterations 2
DILUPBiCG:  Solving for k, Initial residual = 0.0911452, Final residual = 0.000218267, No Iterations 2
DICPCG:  Solving for G, Initial residual = 0.0950572, Final residual = 0.00273807, No Iterations 13
Before T+T solve
BiCG:  Solving for T+T, Initial residual = 0.00416798, Final residual = 0.000273673, No Iterations 4
Tres = -1.62583
TsRes = -1.10844
ExecutionTime = 0.03 s



Wall heat fluxes [W]
movingWall -0.309508 1.93677e-15 0.344198 0.0346895
left 0.0231941 -1.95109e-17 0.702431 0.725625
right -1.04887 3.26114e-15 -1.36661 -2.41547
bottom -0.290655 0 0.319978 0.0293236
frontAndBack 0 0 0 0
sum -1.62583 5.1784e-15 -3.27563e-07 -1.62583


Wall heat fluxes [W]
topAndBottom 0 0 0 0
left 2.64627 0 0 2.64627
right -3.75472 0 0 -3.75472
frontAndBack 0 0 0 0
sum -1.10844 0 0 -1.10844

Time = 6

DILUPBiCG:  Solving for Ux, Initial residual = 0.101308, Final residual = 0.000810934, No Iterations 1
DILUPBiCG:  Solving for Uy, Initial residual = 0.130085, Final residual = 0.00119024, No Iterations 1
DICPCG:  Solving for p_rgh, Initial residual = 0.0782435, Final residual = 0.000395276, No Iterations 10
time step continuity errors : sum local = 0.00155823, global = 4.14252e-17, cumulative = 2.14868e-16
DILUPBiCG:  Solving for epsilon, Initial residual = 0.120732, Final residual = 0.000113243, No Iterations 2
DILUPBiCG:  Solving for k, Initial residual = 0.0756904, Final residual = 9.12192e-05, No Iterations 2
DICPCG:  Solving for G, Initial residual = 0.0657958, Final residual = 0.00191095, No Iterations 13
Before T+T solve
BiCG:  Solving for T+T, Initial residual = 0.00355227, Final residual = 0.000147284, No Iterations 4
Tres = -1.7049
TsRes = -0.764045
ExecutionTime = 0.03 s



Wall heat fluxes [W]
movingWall -0.334019 1.80102e-15 0.361608 0.0275896
left 0.028588 -4.50918e-16 0.790295 0.818883
right -1.07609 4.12838e-16 -1.50051 -2.5766
bottom -0.323379 0 0.348608 0.0252287
frontAndBack 0 0 0 0
sum -1.7049 1.76294e-15 -7.00292e-07 -1.7049


Wall heat fluxes [W]
topAndBottom 0 0 0 0
left 2.72925 0 0 2.72925
right -3.4933 0 0 -3.4933
frontAndBack 0 0 0 0
sum -0.764045 0 0 -0.764045

Time = 7

DILUPBiCG:  Solving for Ux, Initial residual = 0.0833258, Final residual = 0.000710771, No Iterations 1
DILUPBiCG:  Solving for Uy, Initial residual = 0.0947041, Final residual = 0.000753066, No Iterations 1
DICPCG:  Solving for p_rgh, Initial residual = 0.0682861, Final residual = 0.000645773, No Iterations 9
time step continuity errors : sum local = 0.00257082, global = 3.62173e-16, cumulative = 5.77041e-16
DILUPBiCG:  Solving for epsilon, Initial residual = 0.0969533, Final residual = 0.000106136, No Iterations 2
DILUPBiCG:  Solving for k, Initial residual = 0.0667221, Final residual = 9.54228e-05, No Iterations 2
DICPCG:  Solving for G, Initial residual = 0.0457032, Final residual = 0.00132875, No Iterations 13
Before T+T solve
BiCG:  Solving for T+T, Initial residual = 0.0032376, Final residual = 0.000123902, No Iterations 4
Tres = -1.74794
TsRes = -0.520889
ExecutionTime = 0.03 s



Wall heat fluxes [W]
movingWall -0.348819 3.2463e-15 0.372264 0.0234445
left 0.0335744 -8.88829e-17 0.856653 0.890227
right -1.08916 1.46114e-14 -1.59306 -2.68222
bottom -0.343533 0 0.364138 0.0206051
frontAndBack 0 0 0 0
sum -1.74794 1.77688e-14 -6.89518e-07 -1.74794


Wall heat fluxes [W]
topAndBottom 0 0 0 0
left 2.77628 0 0 2.77628
right -3.29717 0 0 -3.29717
frontAndBack 0 0 0 0
sum -0.520889 0 0 -0.520889

Time = 8

DILUPBiCG:  Solving for Ux, Initial residual = 0.0784881, Final residual = 0.000701674, No Iterations 1
DILUPBiCG:  Solving for Uy, Initial residual = 0.0790431, Final residual = 0.000583185, No Iterations 1
DICPCG:  Solving for p_rgh, Initial residual = 0.0774971, Final residual = 0.000709882, No Iterations 9
time step continuity errors : sum local = 0.00288147, global = -2.85675e-16, cumulative = 2.91366e-16
DILUPBiCG:  Solving for epsilon, Initial residual = 0.0756914, Final residual = 2.31546e-06, No Iterations 3
DILUPBiCG:  Solving for k, Initial residual = 0.0622451, Final residual = 0.000105657, No Iterations 2
DICPCG:  Solving for G, Initial residual = 0.0329317, Final residual = 0.000962861, No Iterations 13
Before T+T solve
BiCG:  Solving for T+T, Initial residual = 0.00303107, Final residual = 0.000122148, No Iterations 4
Tres = -1.76328
TsRes = -0.37063
ExecutionTime = 0.04 s



Wall heat fluxes [W]
movingWall -0.355258 -3.96988e-15 0.375603 0.0203452
left 0.0372694 4.24903e-16 0.907209 0.944478
right -1.08967 -9.67241e-15 -1.65612 -2.74579
bottom -0.355624 0 0.373304 0.0176798
frontAndBack 0 0 0 0
sum -1.76328 -1.32174e-14 -6.85235e-07 -1.76328


Wall heat fluxes [W]
topAndBottom 0 0 0 0
left 2.79652 0 0 2.79652
right -3.16715 0 0 -3.16715
frontAndBack 0 0 0 0
sum -0.37063 0 0 -0.37063

Time = 9

DILUPBiCG:  Solving for Ux, Initial residual = 0.0747344, Final residual = 0.000682902, No Iterations 1
DILUPBiCG:  Solving for Uy, Initial residual = 0.0709685, Final residual = 0.000570772, No Iterations 1
DICPCG:  Solving for p_rgh, Initial residual = 0.0909247, Final residual = 0.00073584, No Iterations 9
time step continuity errors : sum local = 0.00315372, global = 2.47492e-17, cumulative = 3.16115e-16
DILUPBiCG:  Solving for epsilon, Initial residual = 0.0608274, Final residual = 7.56654e-05, No Iterations 2
DILUPBiCG:  Solving for k, Initial residual = 0.0591625, Final residual = 9.63071e-05, No Iterations 2
DICPCG:  Solving for G, Initial residual = 0.0243912, Final residual = 0.000735921, No Iterations 13
Before T+T solve
BiCG:  Solving for T+T, Initial residual = 0.00290724, Final residual = 0.000123465, No Iterations 4
Tres = -1.76091
TsRes = -0.272081
ExecutionTime = 0.04 s



Wall heat fluxes [W]
movingWall -0.354831 -1.2488e-15 0.373552 0.0187217
left 0.0399078 3.42524e-16 0.946082 0.98599
right -1.0835 2.52652e-15 -1.69635 -2.77984
bottom -0.362489 0 0.376711 0.014222
frontAndBack 0 0 0 0
sum -1.76091 1.62024e-15 -6.55106e-07 -1.76091


Wall heat fluxes [W]
topAndBottom 0 0 0 0
left 2.80103 0 0 2.80103
right -3.07311 0 0 -3.07311
frontAndBack 0 0 0 0
sum -0.272081 0 0 -0.272081

Time = 10

DILUPBiCG:  Solving for Ux, Initial residual = 0.0722428, Final residual = 0.000653321, No Iterations 1
DILUPBiCG:  Solving for Uy, Initial residual = 0.067017, Final residual = 0.000571319, No Iterations 1
DICPCG:  Solving for p_rgh, Initial residual = 0.111431, Final residual = 0.000666927, No Iterations 9
time step continuity errors : sum local = 0.00322658, global = 4.23516e-16, cumulative = 7.39632e-16
DILUPBiCG:  Solving for epsilon, Initial residual = 0.0486101, Final residual = 4.51924e-05, No Iterations 2
DILUPBiCG:  Solving for k, Initial residual = 0.056086, Final residual = 8.1589e-05, No Iterations 2
DICPCG:  Solving for G, Initial residual = 0.0188794, Final residual = 0.00060014, No Iterations 13
Before T+T solve
BiCG:  Solving for T+T, Initial residual = 0.00286057, Final residual = 7.46519e-05, No Iterations 4
Tres = -1.76085
TsRes = -0.18445
ExecutionTime = 0.04 s



Wall heat fluxes [W]
movingWall -0.349477 2.03441e-15 0.366747 0.0172701
left 0.0420713 6.07005e-17 0.976923 1.01899
right -1.08648 1.86738e-14 -1.72274 -2.80922
bottom -0.366965 0 0.379072 0.0121068
frontAndBack 0 0 0 0
sum -1.76085 2.07689e-14 -6.46434e-07 -1.76085


Wall heat fluxes [W]
topAndBottom 0 0 0 0
left 2.81967 0 0 2.81967
right -3.00412 0 0 -3.00412
frontAndBack 0 0 0 0
sum -0.18445 0 0 -0.18445

Time = 11

DILUPBiCG:  Solving for Ux, Initial residual = 0.0679431, Final residual = 0.000592807, No Iterations 1
DILUPBiCG:  Solving for Uy, Initial residual = 0.0628504, Final residual = 0.000531213, No Iterations 1
DICPCG:  Solving for p_rgh, Initial residual = 0.0839334, Final residual = 0.00068823, No Iterations 9
time step continuity errors : sum local = 0.00329789, global = -1.29702e-16, cumulative = 6.0993e-16
DILUPBiCG:  Solving for epsilon, Initial residual = 0.0404633, Final residual = 3.58988e-05, No Iterations 2
DILUPBiCG:  Solving for k, Initial residual = 0.0539543, Final residual = 7.42232e-05, No Iterations 2
DICPCG:  Solving for G, Initial residual = 0.0152481, Final residual = 0.000500106, No Iterations 13
Before T+T solve
BiCG:  Solving for T+T, Initial residual = 0.00276942, Final residual = 0.000253581, No Iterations 3
Tres = -1.75342
TsRes = -0.132591
ExecutionTime = 0.04 s



Wall heat fluxes [W]
movingWall -0.341878 -6.52573e-15 0.357353 0.0154755
left 0.044175 4.33575e-17 1.00223 1.04641
right -1.08583 0 -1.73974 -2.82557
bottom -0.369894 0 0.380157 0.0102635
frontAndBack 0 0 0 0
sum -1.75342 -6.48238e-15 -5.21495e-07 -1.75342


Wall heat fluxes [W]
topAndBottom 0 0 0 0
left 2.83082 0 0 2.83082
right -2.96341 0 0 -2.96341
frontAndBack 0 0 0 0
sum -0.132591 0 0 -0.132591

Time = 12

DILUPBiCG:  Solving for Ux, Initial residual = 0.0632928, Final residual = 0.000555685, No Iterations 1
DILUPBiCG:  Solving for Uy, Initial residual = 0.0572328, Final residual = 0.000487242, No Iterations 1
DICPCG:  Solving for p_rgh, Initial residual = 0.0863001, Final residual = 0.000701051, No Iterations 9
time step continuity errors : sum local = 0.00317605, global = -1.27055e-16, cumulative = 4.82875e-16
DILUPBiCG:  Solving for epsilon, Initial residual = 0.0350226, Final residual = 3.16638e-05, No Iterations 2
DILUPBiCG:  Solving for k, Initial residual = 0.0526946, Final residual = 7.27713e-05, No Iterations 2
DICPCG:  Solving for G, Initial residual = 0.0120048, Final residual = 0.000373909, No Iterations 13
Before T+T solve
BiCG:  Solving for T+T, Initial residual = 0.00279907, Final residual = 0.000256626, No Iterations 1
Tres = -1.7349
TsRes = -0.140331
ExecutionTime = 0.05 s



Wall heat fluxes [W]
movingWall -0.332509 1.316e-15 0.346395 0.0138854
left 0.0459666 -1.64758e-16 1.02234 1.06831
right -1.07693 -7.64916e-15 -1.74848 -2.82541
bottom -0.371422 0 0.379743 0.00832111
frontAndBack 0 0 0 0
sum -1.7349 -6.49791e-15 -2.61933e-07 -1.7349


Wall heat fluxes [W]
topAndBottom 0 0 0 0
left 2.81943 0 0 2.81943
right -2.95976 0 0 -2.95976
frontAndBack 0 0 0 0
sum -0.140331 0 0 -0.140331

Time = 13

DILUPBiCG:  Solving for Ux, Initial residual = 0.0598115, Final residual = 0.000540691, No Iterations 1
DILUPBiCG:  Solving for Uy, Initial residual = 0.0548742, Final residual = 0.000471843, No Iterations 1
DICPCG:  Solving for p_rgh, Initial residual = 0.135103, Final residual = 0.000921886, No Iterations 9
time step continuity errors : sum local = 0.0039007, global = 5.6149e-17, cumulative = 5.39024e-16
DILUPBiCG:  Solving for epsilon, Initial residual = 0.0315952, Final residual = 2.99669e-05, No Iterations 2
DILUPBiCG:  Solving for k, Initial residual = 0.0517918, Final residual = 7.22281e-05, No Iterations 2
DICPCG:  Solving for G, Initial residual = 0.00929794, Final residual = 0.000299413, No Iterations 13
Before T+T solve
BiCG:  Solving for T+T, Initial residual = 0.00270499, Final residual = 0.000265485, No Iterations 1
Tres = -1.71528
TsRes = -0.149577
ExecutionTime = 0.05 s



Wall heat fluxes [W]
movingWall -0.321655 -5.55821e-15 0.334201 0.0125462
left 0.0478743 8.6715e-17 1.03804 1.08591
right -1.06957 8.50976e-15 -1.75104 -2.82061
bottom -0.371923 0 0.378802 0.00687871
frontAndBack 0 0 0 0
sum -1.71528 3.03827e-15 -1.08916e-07 -1.71528


Wall heat fluxes [W]
topAndBottom 0 0 0 0
left 2.80685 0 0 2.80685
right -2.95642 0 0 -2.95642
frontAndBack 0 0 0 0
sum -0.149577 0 0 -0.149577

Time = 14

DILUPBiCG:  Solving for Ux, Initial residual = 0.0581595, Final residual = 0.000526761, No Iterations 1
DILUPBiCG:  Solving for Uy, Initial residual = 0.0515823, Final residual = 0.000463047, No Iterations 1
DICPCG:  Solving for p_rgh, Initial residual = 0.172039, Final residual = 0.00116779, No Iterations 9
time step continuity errors : sum local = 0.00464222, global = -2.15993e-16, cumulative = 3.23031e-16
DILUPBiCG:  Solving for epsilon, Initial residual = 0.0293214, Final residual = 2.83949e-05, No Iterations 2
DILUPBiCG:  Solving for k, Initial residual = 0.051302, Final residual = 7.37224e-05, No Iterations 2
DICPCG:  Solving for G, Initial residual = 0.00594684, Final residual = 0.000296183, No Iterations 11
Before T+T solve
BiCG:  Solving for T+T, Initial residual = 0.00273621, Final residual = 0.000144772, No Iterations 3
Tres = -1.69722
TsRes = -0.110992
ExecutionTime = 0.05 s



Wall heat fluxes [W]
movingWall -0.308702 -4.1898e-15 0.318849 0.010147
left 0.0503336 -8.6715e-17 1.04788 1.09822
right -1.06876 -5.09699e-15 -1.7416 -2.81037
bottom -0.370089 0 0.374872 0.00478329
frontAndBack 0 0 0 0
sum -1.69722 -9.37351e-15 -2.33062e-07 -1.69722


Wall heat fluxes [W]
topAndBottom 0 0 0 0
left 2.8147 0 0 2.8147
right -2.92569 0 0 -2.92569
frontAndBack 0 0 0 0
sum -0.110992 0 0 -0.110992

Time = 15

DILUPBiCG:  Solving for Ux, Initial residual = 0.0507716, Final residual = 0.000487751, No Iterations 1
DILUPBiCG:  Solving for Uy, Initial residual = 0.0474336, Final residual = 0.000424572, No Iterations 1
DICPCG:  Solving for p_rgh, Initial residual = 0.136471, Final residual = 0.00112838, No Iterations 9
time step continuity errors : sum local = 0.00433941, global = 9.29089e-17, cumulative = 4.15939e-16
DILUPBiCG:  Solving for epsilon, Initial residual = 0.0284052, Final residual = 2.6969e-05, No Iterations 2
DILUPBiCG:  Solving for k, Initial residual = 0.0509144, Final residual = 7.44301e-05, No Iterations 2
DICPCG:  Solving for G, Initial residual = 0.00482353, Final residual = 0.000224363, No Iterations 11
Before T+T solve
BiCG:  Solving for T+T, Initial residual = 0.0027486, Final residual = 0.000220995, No Iterations 1
Tres = -1.67402
TsRes = -0.111955
ExecutionTime = 0.06 s



Wall heat fluxes [W]
movingWall -0.296673 -2.70628e-15 0.306504 0.0098308
left 0.0530329 3.4686e-17 1.05587 1.1089
right -1.06153 7.66539e-15 -1.73566 -2.79719
bottom -0.368847 0 0.373287 0.0044396
frontAndBack 0 0 0 0
sum -1.67402 4.9938e-15 -1.29414e-07 -1.67402


Wall heat fluxes [W]
topAndBottom 0 0 0 0
left 2.81098 0 0 2.81098
right -2.92293 0 0 -2.92293
frontAndBack 0 0 0 0
sum -0.111955 0 0 -0.111955

Time = 16

DILUPBiCG:  Solving for Ux, Initial residual = 0.0458678, Final residual = 2.86381e-06, No Iterations 2
DILUPBiCG:  Solving for Uy, Initial residual = 0.0432881, Final residual = 0.000381793, No Iterations 1
DICPCG:  Solving for p_rgh, Initial residual = 0.112169, Final residual = 0.00086593, No Iterations 9
time step continuity errors : sum local = 0.0034366, global = -7.94093e-18, cumulative = 4.07999e-16
DILUPBiCG:  Solving for epsilon, Initial residual = 0.0284415, Final residual = 2.66288e-05, No Iterations 2
DILUPBiCG:  Solving for k, Initial residual = 0.0515431, Final residual = 7.74198e-05, No Iterations 2
DICPCG:  Solving for G, Initial residual = 0.00687617, Final residual = 0.00019568, No Iterations 13
Before T+T solve
BiCG:  Solving for T+T, Initial residual = 0.00274447, Final residual = 0.000239821, No Iterations 1
Tres = -1.65526
TsRes = -0.12287
ExecutionTime = 0.06 s



Wall heat fluxes [W]
movingWall -0.287301 -1.50445e-15 0.298484 0.0111832
left 0.0566695 -2.94831e-16 1.0675 1.12417
right -1.05446 3.389e-15 -1.74206 -2.79652
bottom -0.370167 0 0.376078 0.00591091
frontAndBack 0 0 0 0
sum -1.65526 1.58972e-15 -1.35086e-07 -1.65526


Wall heat fluxes [W]
topAndBottom 0 0 0 0
left 2.79715 0 0 2.79715
right -2.92002 0 0 -2.92002
frontAndBack 0 0 0 0
sum -0.12287 0 0 -0.12287

Time = 17

DILUPBiCG:  Solving for Ux, Initial residual = 0.0435451, Final residual = 2.2898e-06, No Iterations 2
DILUPBiCG:  Solving for Uy, Initial residual = 0.0392926, Final residual = 0.000342529, No Iterations 1
DICPCG:  Solving for p_rgh, Initial residual = 0.102338, Final residual = 0.000504667, No Iterations 9
time step continuity errors : sum local = 0.00193977, global = 2.6258e-16, cumulative = 6.70579e-16
DILUPBiCG:  Solving for epsilon, Initial residual = 0.0292602, Final residual = 2.68859e-05, No Iterations 2
DILUPBiCG:  Solving for k, Initial residual = 0.0528943, Final residual = 8.31187e-05, No Iterations 2
DICPCG:  Solving for G, Initial residual = 0.00522969, Final residual = 0.000311474, No Iterations 11
Before T+T solve
BiCG:  Solving for T+T, Initial residual = 0.00278648, Final residual = 0.000257013, No Iterations 1
Tres = -1.6305
TsRes = -0.131491
ExecutionTime = 0.06 s



Wall heat fluxes [W]
movingWall -0.275528 1.36431e-15 0.284922 0.00939379
left 0.0614474 -5.2029e-16 1.07636 1.13781
right -1.04738 1.10735e-14 -1.73439 -2.78177
bottom -0.369038 0 0.373104 0.00406578
frontAndBack 0 0 0 0
sum -1.6305 1.19175e-14 -4.41409e-07 -1.6305


Wall heat fluxes [W]
topAndBottom 0 0 0 0
left 2.78559 0 0 2.78559
right -2.91708 0 0 -2.91708
frontAndBack 0 0 0 0
sum -0.131491 0 0 -0.131491

Time = 18

DILUPBiCG:  Solving for Ux, Initial residual = 0.0406551, Final residual = 2.15686e-06, No Iterations 2
DILUPBiCG:  Solving for Uy, Initial residual = 0.0383989, Final residual = 0.000330305, No Iterations 1
DICPCG:  Solving for p_rgh, Initial residual = 0.107363, Final residual = 0.000570703, No Iterations 9
time step continuity errors : sum local = 0.00217183, global = -5.98217e-17, cumulative = 6.10757e-16
DILUPBiCG:  Solving for epsilon, Initial residual = 0.0302913, Final residual = 2.97739e-05, No Iterations 2
DILUPBiCG:  Solving for k, Initial residual = 0.0544375, Final residual = 8.93775e-05, No Iterations 2
DICPCG:  Solving for G, Initial residual = 0.00438969, Final residual = 0.000418796, No Iterations 11
Before T+T solve
BiCG:  Solving for T+T, Initial residual = 0.00281921, Final residual = 0.000272372, No Iterations 1
Tres = -1.60452
TsRes = -0.139693
ExecutionTime = 0.06 s



Wall heat fluxes [W]
movingWall -0.264008 -5.56004e-15 0.273334 0.00932596
left 0.0675902 -1.04058e-16 1.08358 1.15117
right -1.03991 3.83412e-15 -1.7291 -2.76902
bottom -0.368193 0 0.372188 0.00399573
frontAndBack 0 0 0 0
sum -1.60452 -1.82997e-15 -6.92573e-07 -1.60452


Wall heat fluxes [W]
topAndBottom 0 0 0 0
left 2.77447 0 0 2.77447
right -2.91416 0 0 -2.91416
frontAndBack 0 0 0 0
sum -0.139693 0 0 -0.139693

Time = 19

DILUPBiCG:  Solving for Ux, Initial residual = 0.0378008, Final residual = 2.10216e-06, No Iterations 2
DILUPBiCG:  Solving for Uy, Initial residual = 0.0370864, Final residual = 0.000315346, No Iterations 1
DICPCG:  Solving for p_rgh, Initial residual = 0.11192, Final residual = 0.00111293, No Iterations 9
time step continuity errors : sum local = 0.00409553, global = -9.05266e-17, cumulative = 5.2023e-16
DILUPBiCG:  Solving for epsilon, Initial residual = 0.0314332, Final residual = 3.53139e-05, No Iterations 2
DILUPBiCG:  Solving for k, Initial residual = 0.0561739, Final residual = 9.48251e-05, No Iterations 2
DICPCG:  Solving for G, Initial residual = 0.00446801, Final residual = 0.000388829, No Iterations 12
Before T+T solve
BiCG:  Solving for T+T, Initial residual = 0.00285524, Final residual = 0.000266045, No Iterations 2
Tres = -1.57649
TsRes = -0.14007
ExecutionTime = 0.06 s



Wall heat fluxes [W]
movingWall -0.252201 -1.94062e-15 0.26189 0.00968866
left 0.0762506 -1.04058e-16 1.09081 1.16706
right -1.03307 -3.39781e-15 -1.72411 -2.75718
bottom -0.36747 0 0.371413 0.00394297
frontAndBack 0 0 0 0
sum -1.57649 -5.44249e-15 2.08279e-07 -1.57649


Wall heat fluxes [W]
topAndBottom 0 0 0 0
left 2.76513 0 0 2.76513
right -2.9052 0 0 -2.9052
frontAndBack 0 0 0 0
sum -0.14007 0 0 -0.14007

Time = 20

DILUPBiCG:  Solving for Ux, Initial residual = 0.0337781, Final residual = 2.22289e-06, No Iterations 2
DILUPBiCG:  Solving for Uy, Initial residual = 0.0346993, Final residual = 0.000284586, No Iterations 1
DICPCG:  Solving for p_rgh, Initial residual = 0.097469, Final residual = 0.000479658, No Iterations 10
time step continuity errors : sum local = 0.00181487, global = 8.78879e-17, cumulative = 6.08118e-16
DILUPBiCG:  Solving for epsilon, Initial residual = 0.0326049, Final residual = 4.28834e-05, No Iterations 2
DILUPBiCG:  Solving for k, Initial residual = 0.0581013, Final residual = 0.000100112, No Iterations 2
DICPCG:  Solving for G, Initial residual = 0.00453485, Final residual = 0.000408214, No Iterations 12
Before T+T solve
BiCG:  Solving for T+T, Initial residual = 0.00286089, Final residual = 0.000263459, No Iterations 2
Tres = -1.54662
TsRes = -0.14005
ExecutionTime = 0.07 s



Wall heat fluxes [W]
movingWall -0.240364 2.74184e-15 0.249919 0.00955472
left 0.0864422 3.4686e-17 1.09824 1.18468
right -1.02565 -8.65638e-19 -1.7191 -2.74475
bottom -0.367043 0 0.370939 0.00389608
frontAndBack 0 0 0 0
sum -1.54662 2.77566e-15 1.37539e-07 -1.54662


Wall heat fluxes [W]
topAndBottom 0 0 0 0
left 2.75625 0 0 2.75625
right -2.8963 0 0 -2.8963
frontAndBack 0 0 0 0
sum -0.14005 0 0 -0.14005

Time = 21

DILUPBiCG:  Solving for Ux, Initial residual = 0.0312198, Final residual = 2.80258e-06, No Iterations 2
DILUPBiCG:  Solving for Uy, Initial residual = 0.0324322, Final residual = 0.000262371, No Iterations 1
DICPCG:  Solving for p_rgh, Initial residual = 0.0808805, Final residual = 0.000393609, No Iterations 10
time step continuity errors : sum local = 0.00158853, global = 2.06464e-17, cumulative = 6.28765e-16
DILUPBiCG:  Solving for epsilon, Initial residual = 0.0337395, Final residual = 5.10784e-05, No Iterations 2
DILUPBiCG:  Solving for k, Initial residual = 0.0598606, Final residual = 0.00010452, No Iterations 2
DICPCG:  Solving for G, Initial residual = 0.00504393, Final residual = 0.000377627, No Iterations 11
Before T+T solve
BiCG:  Solving for T+T, Initial residual = 0.00286262, Final residual = 0.000265547, No Iterations 2
Tres = -1.5158
TsRes = -0.141448
ExecutionTime = 0.07 s



Wall heat fluxes [W]
movingWall -0.229445 5.13429e-15 0.23903 0.00958555
left 0.0984303 -3.4686e-17 1.10648 1.20491
right -1.01771 -4.70059e-15 -1.71688 -2.7346
bottom -0.367073 0 0.371377 0.00430363
frontAndBack 0 0 0 0
sum -1.5158 3.99012e-16 -9.96192e-07 -1.5158


Wall heat fluxes [W]
topAndBottom 0 0 0 0
left 2.74574 0 0 2.74574
right -2.88719 0 0 -2.88719
frontAndBack 0 0 0 0
sum -0.141448 0 0 -0.141448

Time = 22

DILUPBiCG:  Solving for Ux, Initial residual = 0.0283227, Final residual = 3.15317e-06, No Iterations 2
DILUPBiCG:  Solving for Uy, Initial residual = 0.0302961, Final residual = 0.000249871, No Iterations 1
DICPCG:  Solving for p_rgh, Initial residual = 0.0636093, Final residual = 0.000405644, No Iterations 10
time step continuity errors : sum local = 0.00183706, global = -2.64698e-17, cumulative = 6.02295e-16
DILUPBiCG:  Solving for epsilon, Initial residual = 0.0351817, Final residual = 6.02013e-05, No Iterations 2
DILUPBiCG:  Solving for k, Initial residual = 0.0614201, Final residual = 0.000110674, No Iterations 2
DICPCG:  Solving for G, Initial residual = 0.00517219, Final residual = 0.000391369, No Iterations 12
Before T+T solve
BiCG:  Solving for T+T, Initial residual = 0.00284157, Final residual = 0.000269259, No Iterations 2
Tres = -1.48251
TsRes = -0.143673
ExecutionTime = 0.07 s



Wall heat fluxes [W]
movingWall -0.218876 -5.50493e-15 0.228245 0.00936933
left 0.112307 5.2029e-16 1.11489 1.22719
right -1.00909 5.53907e-15 -1.7143 -2.72339
bottom -0.366843 0 0.371165 0.00432153
frontAndBack 0 0 0 0
sum -1.48251 5.54433e-16 1.0698e-07 -1.48251


Wall heat fluxes [W]
topAndBottom 0 0 0 0
left 2.73436 0 0 2.73436
right -2.87803 0 0 -2.87803
frontAndBack 0 0 0 0
sum -0.143673 0 0 -0.143673

Time = 23

DILUPBiCG:  Solving for Ux, Initial residual = 0.0254325, Final residual = 3.48367e-06, No Iterations 2
DILUPBiCG:  Solving for Uy, Initial residual = 0.0286911, Final residual = 0.000247205, No Iterations 1
DICPCG:  Solving for p_rgh, Initial residual = 0.0535135, Final residual = 0.000488942, No Iterations 10
time step continuity errors : sum local = 0.00233165, global = -6.35275e-17, cumulative = 5.38768e-16
DILUPBiCG:  Solving for epsilon, Initial residual = 0.0361724, Final residual = 6.93755e-05, No Iterations 2
DILUPBiCG:  Solving for k, Initial residual = 0.0627572, Final residual = 0.000121843, No Iterations 2
DICPCG:  Solving for G, Initial residual = 0.00510705, Final residual = 0.000363192, No Iterations 12
Before T+T solve
BiCG:  Solving for T+T, Initial residual = 0.0028087, Final residual = 0.00027488, No Iterations 2
Tres = -1.44688
TsRes = -0.146476
ExecutionTime = 0.07 s



Wall heat fluxes [W]
movingWall -0.208786 -4.32214e-15 0.217826 0.00904
left 0.128052 -1.7343e-16 1.12323 1.25128
right -0.999739 1.71674e-15 -1.7119 -2.71164
bottom -0.366407 0 0.37085 0.00444353
frontAndBack 0 0 0 0
sum -1.44688 -2.77883e-15 2.56025e-07 -1.44688


Wall heat fluxes [W]
topAndBottom 0 0 0 0
left 2.72229 0 0 2.72229
right -2.86877 0 0 -2.86877
frontAndBack 0 0 0 0
sum -0.146476 0 0 -0.146476

Time = 24

DILUPBiCG:  Solving for Ux, Initial residual = 0.0227469, Final residual = 3.61565e-06, No Iterations 2
DILUPBiCG:  Solving for Uy, Initial residual = 0.0266487, Final residual = 0.00024283, No Iterations 1
DICPCG:  Solving for p_rgh, Initial residual = 0.0458767, Final residual = 0.00013257, No Iterations 12
time step continuity errors : sum local = 0.000580977, global = -3.70577e-18, cumulative = 5.35062e-16
DILUPBiCG:  Solving for epsilon, Initial residual = 0.0365442, Final residual = 7.92105e-05, No Iterations 2
DILUPBiCG:  Solving for k, Initial residual = 0.0637785, Final residual = 0.000133652, No Iterations 2
DICPCG:  Solving for G, Initial residual = 0.00504614, Final residual = 0.000343863, No Iterations 12
Before T+T solve
BiCG:  Solving for T+T, Initial residual = 0.00275674, Final residual = 0.000128971, No Iterations 3
Tres = -1.41434
TsRes = -0.114621
ExecutionTime = 0.08 s



Wall heat fluxes [W]
movingWall -0.199823 2.61711e-15 0.207991 0.00816774
left 0.145086 6.24348e-16 1.13149 1.27658
right -0.994028 -3.40432e-15 -1.7097 -2.70373
bottom -0.365573 0 0.370217 0.00464358
frontAndBack 0 0 0 0
sum -1.41434 -1.62862e-16 3.07202e-07 -1.41434


Wall heat fluxes [W]
topAndBottom 0 0 0 0
left 2.72202 0 0 2.72202
right -2.83664 0 0 -2.83664
frontAndBack 0 0 0 0
sum -0.114621 0 0 -0.114621

Time = 25

DILUPBiCG:  Solving for Ux, Initial residual = 0.0199489, Final residual = 3.3629e-06, No Iterations 2
DILUPBiCG:  Solving for Uy, Initial residual = 0.024561, Final residual = 0.00023631, No Iterations 1
DICPCG:  Solving for p_rgh, Initial residual = 0.0425463, Final residual = 0.000136607, No Iterations 12
time step continuity errors : sum local = 0.000612009, global = -6.24687e-17, cumulative = 4.72593e-16
DILUPBiCG:  Solving for epsilon, Initial residual = 0.036129, Final residual = 8.7843e-05, No Iterations 2
DILUPBiCG:  Solving for k, Initial residual = 0.0640355, Final residual = 0.00014284, No Iterations 2
DICPCG:  Solving for G, Initial residual = 0.00486286, Final residual = 0.000231537, No Iterations 11
Before T+T solve
BiCG:  Solving for T+T, Initial residual = 0.00262493, Final residual = 0.000215139, No Iterations 2
Tres = -1.37363
TsRes = -0.118051
ExecutionTime = 0.08 s



Wall heat fluxes [W]
movingWall -0.191512 -1.42508e-15 0.199611 0.00809872
left 0.164225 -2.42802e-16 1.13946 1.30368
right -0.981928 -1.70599e-15 -1.70796 -2.68989
bottom -0.364413 0 0.368889 0.00447574
frontAndBack 0 0 0 0
sum -1.37363 -3.37388e-15 -4.02523e-07 -1.37363


Wall heat fluxes [W]
topAndBottom 0 0 0 0
left 2.71026 0 0 2.71026
right -2.82831 0 0 -2.82831
frontAndBack 0 0 0 0
sum -0.118051 0 0 -0.118051

Time = 26

DILUPBiCG:  Solving for Ux, Initial residual = 0.0191236, Final residual = 3.57218e-06, No Iterations 2
DILUPBiCG:  Solving for Uy, Initial residual = 0.0222927, Final residual = 0.00021566, No Iterations 1
DICPCG:  Solving for p_rgh, Initial residual = 0.0366134, Final residual = 0.000123556, No Iterations 12
time step continuity errors : sum local = 0.000561937, global = -1.13291e-16, cumulative = 3.59302e-16
DILUPBiCG:  Solving for epsilon, Initial residual = 0.0357808, Final residual = 9.55875e-05, No Iterations 2
DILUPBiCG:  Solving for k, Initial residual = 0.0638556, Final residual = 0.000154035, No Iterations 2
DICPCG:  Solving for G, Initial residual = 0.0066269, Final residual = 0.000499106, No Iterations 12
Before T+T solve
BiCG:  Solving for T+T, Initial residual = 0.00256319, Final residual = 0.000244175, No Iterations 2
Tres = -1.33556
TsRes = -0.129028
ExecutionTime = 0.08 s



Wall heat fluxes [W]
movingWall -0.185569 -5.55339e-15 0.194478 0.00890911
left 0.184549 -1.7343e-15 1.15051 1.33506
right -0.969733 4.28601e-15 -1.71599 -2.68573
bottom -0.364804 0 0.371008 0.00620325
frontAndBack 0 0 0 0
sum -1.33556 -3.00168e-15 -7.80672e-08 -1.33556


Wall heat fluxes [W]
topAndBottom 0 0 0 0
left 2.69104 0 0 2.69104
right -2.82007 0 0 -2.82007
frontAndBack 0 0 0 0
sum -0.129028 0 0 -0.129028

Time = 27

DILUPBiCG:  Solving for Ux, Initial residual = 0.0164373, Final residual = 3.07754e-06, No Iterations 2
DILUPBiCG:  Solving for Uy, Initial residual = 0.019829, Final residual = 0.00019592, No Iterations 1
DICPCG:  Solving for p_rgh, Initial residual = 0.0305019, Final residual = 0.000285923, No Iterations 7
time step continuity errors : sum local = 0.00177988, global = -1.77083e-16, cumulative = 1.8222e-16
DILUPBiCG:  Solving for epsilon, Initial residual = 0.0349432, Final residual = 0.000102996, No Iterations 2
DILUPBiCG:  Solving for k, Initial residual = 0.0632669, Final residual = 0.000189568, No Iterations 2
DICPCG:  Solving for G, Initial residual = 0.005311, Final residual = 0.000376731, No Iterations 11
Before T+T solve
BiCG:  Solving for T+T, Initial residual = 0.00251161, Final residual = 0.000105579, No Iterations 3
Tres = -1.29758
TsRes = -0.105664
ExecutionTime = 0.08 s



Wall heat fluxes [W]
movingWall -0.179257 -5.8185e-16 0.185211 0.00595387
left 0.205393 -2.18522e-15 1.15909 1.36448
right -0.961034 -4.70293e-15 -1.71147 -2.6725
bottom -0.362677 0 0.367164 0.00448751
frontAndBack 0 0 0 0
sum -1.29758 -7.47e-15 -3.66538e-07 -1.29758


Wall heat fluxes [W]
topAndBottom 0 0 0 0
left 2.68589 0 0 2.68589
right -2.79156 0 0 -2.79156
frontAndBack 0 0 0 0
sum -0.105664 0 0 -0.105664

Time = 28

DILUPBiCG:  Solving for Ux, Initial residual = 0.0146549, Final residual = 4.82175e-06, No Iterations 2
DILUPBiCG:  Solving for Uy, Initial residual = 0.0194835, Final residual = 0.000191255, No Iterations 1
DICPCG:  Solving for p_rgh, Initial residual = 0.0303297, Final residual = 0.000263151, No Iterations 11
time step continuity errors : sum local = 0.00124633, global = -1.03232e-17, cumulative = 1.71896e-16
DILUPBiCG:  Solving for epsilon, Initial residual = 0.0340909, Final residual = 8.68076e-05, No Iterations 2
DILUPBiCG:  Solving for k, Initial residual = 0.0624696, Final residual = 0.000105162, No Iterations 2
DICPCG:  Solving for G, Initial residual = 0.00412332, Final residual = 0.00013835, No Iterations 11
Before T+T solve
BiCG:  Solving for T+T, Initial residual = 0.00241356, Final residual = 0.000208205, No Iterations 2
Tres = -1.25413
TsRes = -0.110798
ExecutionTime = 0.08 s



Wall heat fluxes [W]
movingWall -0.174195 1.50381e-15 0.179882 0.0056863
left 0.227069 -7.97778e-16 1.16567 1.39274
right -0.947057 8.03641e-20 -1.71033 -2.65738
bottom -0.359948 0 0.364771 0.00482257
frontAndBack 0 0 0 0
sum -1.25413 7.06112e-16 -2.26956e-07 -1.25413


Wall heat fluxes [W]
topAndBottom 0 0 0 0
left 2.67332 0 0 2.67332
right -2.78411 0 0 -2.78411
frontAndBack 0 0 0 0
sum -0.110798 0 0 -0.110798

Time = 29

DILUPBiCG:  Solving for Ux, Initial residual = 0.0160711, Final residual = 6.11858e-06, No Iterations 2
DILUPBiCG:  Solving for Uy, Initial residual = 0.0182073, Final residual = 0.000177356, No Iterations 1
DICPCG:  Solving for p_rgh, Initial residual = 0.0385955, Final residual = 0.000208644, No Iterations 6
time step continuity errors : sum local = 0.000972472, global = -4.97632e-17, cumulative = 1.22133e-16
DILUPBiCG:  Solving for epsilon, Initial residual = 0.0333104, Final residual = 5.73887e-05, No Iterations 2
DILUPBiCG:  Solving for k, Initial residual = 0.0614068, Final residual = 9.78751e-05, No Iterations 2
DICPCG:  Solving for G, Initial residual = 0.00595872, Final residual = 0.000473153, No Iterations 12
Before T+T solve
BiCG:  Solving for T+T, Initial residual = 0.00240227, Final residual = 0.000114185, No Iterations 3
Tres = -1.21841
TsRes = -0.0940845
ExecutionTime = 0.09 s



Wall heat fluxes [W]
movingWall -0.172073 7.32141e-16 0.178157 0.00608433
left 0.248614 -5.54976e-16 1.17531 1.42393
right -0.936309 -1.72744e-15 -1.71826 -2.65457
bottom -0.358644 0 0.364789 0.00614457
frontAndBack 0 0 0 0
sum -1.21841 -1.55028e-15 3.29378e-08 -1.21841


Wall heat fluxes [W]
topAndBottom 0 0 0 0
left 2.66298 0 0 2.66298
right -2.75707 0 0 -2.75707
frontAndBack 0 0 0 0
sum -0.0940845 0 0 -0.0940845

Time = 30

DILUPBiCG:  Solving for Ux, Initial residual = 0.0150859, Final residual = 6.46631e-06, No Iterations 2
DILUPBiCG:  Solving for Uy, Initial residual = 0.0177531, Final residual = 0.00016627, No Iterations 1
DICPCG:  Solving for p_rgh, Initial residual = 0.0494429, Final residual = 0.000448945, No Iterations 5
time step continuity errors : sum local = 0.0021723, global = -2.42761e-16, cumulative = -1.20628e-16
DILUPBiCG:  Solving for epsilon, Initial residual = 0.0320673, Final residual = 3.88545e-05, No Iterations 2
DILUPBiCG:  Solving for k, Initial residual = 0.0594728, Final residual = 0.000101913, No Iterations 2
DICPCG:  Solving for G, Initial residual = 0.00462526, Final residual = 0.000390344, No Iterations 10
Before T+T solve
BiCG:  Solving for T+T, Initial residual = 0.00234077, Final residual = 0.000196978, No Iterations 2
Tres = -1.17508
TsRes = -0.102453
ExecutionTime = 0.09 s



Wall heat fluxes [W]
movingWall -0.168851 -2.14352e-15 0.173065 0.00421339
left 0.270105 1.38744e-15 1.18241 1.45251
right -0.921401 -1.24354e-14 -1.71506 -2.63646
bottom -0.354928 0 0.359586 0.00465777
frontAndBack 0 0 0 0
sum -1.17508 -1.31915e-14 -6.63893e-07 -1.17508


Wall heat fluxes [W]
topAndBottom 0 0 0 0
left 2.64849 0 0 2.64849
right -2.75095 0 0 -2.75095
frontAndBack 0 0 0 0
sum -0.102453 0 0 -0.102453

Time = 31

DILUPBiCG:  Solving for Ux, Initial residual = 0.0155454, Final residual = 6.62115e-06, No Iterations 2
DILUPBiCG:  Solving for Uy, Initial residual = 0.0175152, Final residual = 0.000158525, No Iterations 1
DICPCG:  Solving for p_rgh, Initial residual = 0.0547821, Final residual = 0.000411664, No Iterations 5
time step continuity errors : sum local = 0.00249076, global = 9.74088e-17, cumulative = -2.3219e-17
DILUPBiCG:  Solving for epsilon, Initial residual = 0.0309947, Final residual = 2.70792e-05, No Iterations 2
DILUPBiCG:  Solving for k, Initial residual = 0.0576897, Final residual = 9.85982e-05, No Iterations 2
DICPCG:  Solving for G, Initial residual = 0.00555212, Final residual = 0.00043582, No Iterations 12
Before T+T solve
BiCG:  Solving for T+T, Initial residual = 0.00231433, Final residual = 0.000136901, No Iterations 3
Tres = -1.13957
TsRes = -0.0894885
ExecutionTime = 0.09 s



Wall heat fluxes [W]
movingWall -0.168075 3.46191e-15 0.173008 0.00493326
left 0.290554 6.9372e-16 1.19077 1.48133
right -0.909645 -2.15093e-15 -1.72245 -2.63209
bottom -0.352402 0 0.358667 0.00626512
frontAndBack 0 0 0 0
sum -1.13957 2.0047e-15 6.5859e-08 -1.13957


Wall heat fluxes [W]
topAndBottom 0 0 0 0
left 2.63759 0 0 2.63759
right -2.72708 0 0 -2.72708
frontAndBack 0 0 0 0
sum -0.0894885 0 0 -0.0894885

Time = 32

DILUPBiCG:  Solving for Ux, Initial residual = 0.015402, Final residual = 8.32771e-06, No Iterations 2
DILUPBiCG:  Solving for Uy, Initial residual = 0.0174001, Final residual = 0.000147713, No Iterations 1
DICPCG:  Solving for p_rgh, Initial residual = 0.0571045, Final residual = 0.00052466, No Iterations 5
time step continuity errors : sum local = 0.00370061, global = 4.73271e-16, cumulative = 4.50052e-16
DILUPBiCG:  Solving for epsilon, Initial residual = 0.0293612, Final residual = 2.34606e-05, No Iterations 2
DILUPBiCG:  Solving for k, Initial residual = 0.0553316, Final residual = 9.21019e-05, No Iterations 2
DICPCG:  Solving for G, Initial residual = 0.00442735, Final residual = 0.000337703, No Iterations 10
Before T+T solve
BiCG:  Solving for T+T, Initial residual = 0.00226638, Final residual = 0.000195431, No Iterations 2
Tres = -1.09834
TsRes = -0.0978327
ExecutionTime = 0.09 s



Wall heat fluxes [W]
movingWall -0.166201 2.74856e-15 0.169654 0.00345217
left 0.30999 9.71208e-16 1.19731 1.5073
right -0.894427 1.80322e-14 -1.71963 -2.61406
bottom -0.347698 0 0.352669 0.00497071
frontAndBack 0 0 0 0
sum -1.09834 2.1752e-14 -7.5312e-07 -1.09834


Wall heat fluxes [W]
topAndBottom 0 0 0 0
left 2.62325 0 0 2.62325
right -2.72108 0 0 -2.72108
frontAndBack 0 0 0 0
sum -0.0978327 0 0 -0.0978327

Time = 33

DILUPBiCG:  Solving for Ux, Initial residual = 0.0149688, Final residual = 2.97992e-05, No Iterations 2
DILUPBiCG:  Solving for Uy, Initial residual = 0.0175677, Final residual = 0.000150043, No Iterations 1
DICPCG:  Solving for p_rgh, Initial residual = 0.0556461, Final residual = 0.000553836, No Iterations 9
time step continuity errors : sum local = 0.00256181, global = -1.91641e-16, cumulative = 2.58411e-16
DILUPBiCG:  Solving for epsilon, Initial residual = 0.0278504, Final residual = 2.43131e-05, No Iterations 2
DILUPBiCG:  Solving for k, Initial residual = 0.0527997, Final residual = 8.81343e-05, No Iterations 2
DICPCG:  Solving for G, Initial residual = 0.00531543, Final residual = 0.000409535, No Iterations 12
Before T+T solve
BiCG:  Solving for T+T, Initial residual = 0.00222499, Final residual = 0.000159568, No Iterations 3
Tres = -1.06489
TsRes = -0.0866547
ExecutionTime = 0.1 s



Wall heat fluxes [W]
movingWall -0.166315 6.28263e-17 0.170661 0.00434601
left 0.327981 -1.94242e-15 1.20522 1.5332
right -0.882047 -6.86062e-15 -1.72654 -2.60859
bottom -0.344507 0 0.350663 0.00615636
frontAndBack 0 0 0 0
sum -1.06489 -8.74021e-15 4.23092e-08 -1.06489


Wall heat fluxes [W]
topAndBottom 0 0 0 0
left 2.6117 0 0 2.6117
right -2.69835 0 0 -2.69835
frontAndBack 0 0 0 0
sum -0.0866547 0 0 -0.0866547

Time = 34

DILUPBiCG:  Solving for Ux, Initial residual = 0.0150222, Final residual = 0.000120103, No Iterations 1
DILUPBiCG:  Solving for Uy, Initial residual = 0.017599, Final residual = 0.000150744, No Iterations 1
DICPCG:  Solving for p_rgh, Initial residual = 0.0609863, Final residual = 0.000306875, No Iterations 5
time step continuity errors : sum local = 0.00204455, global = -1.74436e-16, cumulative = 8.39754e-17
DILUPBiCG:  Solving for epsilon, Initial residual = 0.0259524, Final residual = 2.4773e-05, No Iterations 2
DILUPBiCG:  Solving for k, Initial residual = 0.0502008, Final residual = 9.32478e-05, No Iterations 2
DICPCG:  Solving for G, Initial residual = 0.00416233, Final residual = 0.000386223, No Iterations 10
Before T+T solve
BiCG:  Solving for T+T, Initial residual = 0.00218709, Final residual = 0.000199595, No Iterations 2
Tres = -1.02704
TsRes = -0.0947709
ExecutionTime = 0.1 s



Wall heat fluxes [W]
movingWall -0.165184 4.25111e-17 0.16813 0.00294629
left 0.344123 -2.2199e-15 1.2114 1.55552
right -0.866763 -6.01604e-15 -1.72406 -2.59082
bottom -0.339218 0 0.344533 0.00531484
frontAndBack 0 0 0 0
sum -1.02704 -8.19343e-15 -9.63927e-07 -1.02704


Wall heat fluxes [W]
topAndBottom 0 0 0 0
left 2.59755 0 0 2.59755
right -2.69232 0 0 -2.69232
frontAndBack 0 0 0 0
sum -0.0947709 0 0 -0.0947709

Time = 35

DILUPBiCG:  Solving for Ux, Initial residual = 0.0141153, Final residual = 4.82684e-06, No Iterations 2
DILUPBiCG:  Solving for Uy, Initial residual = 0.0183527, Final residual = 0.000161727, No Iterations 1
DICPCG:  Solving for p_rgh, Initial residual = 0.0606773, Final residual = 0.000438604, No Iterations 5
time step continuity errors : sum local = 0.00313483, global = 1.72583e-16, cumulative = 2.56558e-16
DILUPBiCG:  Solving for epsilon, Initial residual = 0.0245669, Final residual = 3.07611e-05, No Iterations 2
DILUPBiCG:  Solving for k, Initial residual = 0.047803, Final residual = 0.000107349, No Iterations 2
DICPCG:  Solving for G, Initial residual = 0.00521467, Final residual = 0.000365348, No Iterations 12
Before T+T solve
BiCG:  Solving for T+T, Initial residual = 0.00213169, Final residual = 0.000188953, No Iterations 3
Tres = -0.996229
TsRes = -0.0863625
ExecutionTime = 0.1 s



Wall heat fluxes [W]
movingWall -0.166033 3.67199e-15 0.169921 0.00388797
left 0.358467 -1.10995e-15 1.21907 1.57754
right -0.853549 4.2921e-15 -1.73061 -2.58416
bottom -0.335114 0 0.341613 0.00649929
frontAndBack 0 0 0 0
sum -0.996229 6.85413e-15 -1.48023e-08 -0.996229


Wall heat fluxes [W]
topAndBottom 0 0 0 0
left 2.58435 0 0 2.58435
right -2.67071 0 0 -2.67071
frontAndBack 0 0 0 0
sum -0.0863625 0 0 -0.0863625

Time = 36

DILUPBiCG:  Solving for Ux, Initial residual = 0.0144295, Final residual = 0.00014205, No Iterations 1
DILUPBiCG:  Solving for Uy, Initial residual = 0.0187826, Final residual = 0.000160292, No Iterations 1
DICPCG:  Solving for p_rgh, Initial residual = 0.0654715, Final residual = 0.000262232, No Iterations 9
time step continuity errors : sum local = 0.00131318, global = 3.08638e-16, cumulative = 5.65196e-16
DILUPBiCG:  Solving for epsilon, Initial residual = 0.0232864, Final residual = 8.65165e-05, No Iterations 2
DILUPBiCG:  Solving for k, Initial residual = 0.045233, Final residual = 0.000134354, No Iterations 2
DICPCG:  Solving for G, Initial residual = 0.00419784, Final residual = 0.000342137, No Iterations 11
Before T+T solve
BiCG:  Solving for T+T, Initial residual = 0.00212041, Final residual = 0.000197753, No Iterations 2
Tres = -0.963568
TsRes = -0.0902126
ExecutionTime = 0.1 s



Wall heat fluxes [W]
movingWall -0.165545 2.94602e-15 0.168288 0.00274284
left 0.371215 9.01836e-16 1.22524 1.59645
right -0.839685 1.16316e-14 -1.72831 -2.56799
bottom -0.329554 0 0.334782 0.0052284
frontAndBack 0 0 0 0
sum -0.963568 1.54795e-14 -7.94104e-07 -0.963569


Wall heat fluxes [W]
topAndBottom 0 0 0 0
left 2.57419 0 0 2.57419
right -2.6644 0 0 -2.6644
frontAndBack 0 0 0 0
sum -0.0902126 0 0 -0.0902126

Time = 37

DILUPBiCG:  Solving for Ux, Initial residual = 0.0141077, Final residual = 1.99976e-05, No Iterations 2
DILUPBiCG:  Solving for Uy, Initial residual = 0.0191585, Final residual = 0.000174225, No Iterations 1
DICPCG:  Solving for p_rgh, Initial residual = 0.0511113, Final residual = 0.000299368, No Iterations 5
time step continuity errors : sum local = 0.00222066, global = -1.55642e-16, cumulative = 4.09554e-16
DILUPBiCG:  Solving for epsilon, Initial residual = 0.0219877, Final residual = 2.7958e-05, No Iterations 2
DILUPBiCG:  Solving for k, Initial residual = 0.0432415, Final residual = 0.000155057, No Iterations 2
DICPCG:  Solving for G, Initial residual = 0.00492792, Final residual = 0.000404166, No Iterations 11
Before T+T solve
BiCG:  Solving for T+T, Initial residual = 0.0020408, Final residual = 0.000150358, No Iterations 3
Tres = -0.941745
TsRes = -0.0721685
ExecutionTime = 0.1 s



Wall heat fluxes [W]
movingWall -0.166472 -4.04254e-15 0.170263 0.00379063
left 0.382063 -2.63614e-15 1.23269 1.61475
right -0.832198 2.14883e-15 -1.73476 -2.56696
bottom -0.325138 0 0.33181 0.00667188
frontAndBack 0 0 0 0
sum -0.941745 -4.52985e-15 -1.182e-06 -0.941747


Wall heat fluxes [W]
topAndBottom 0 0 0 0
left 2.57166 0 0 2.57166
right -2.64383 0 0 -2.64383
frontAndBack 0 0 0 0
sum -0.0721685 0 0 -0.0721685

Time = 38

DILUPBiCG:  Solving for Ux, Initial residual = 0.0152212, Final residual = 1.39771e-05, No Iterations 2
DILUPBiCG:  Solving for Uy, Initial residual = 0.0186231, Final residual = 0.00018282, No Iterations 1
DICPCG:  Solving for p_rgh, Initial residual = 0.0366499, Final residual = 0.000290528, No Iterations 9
time step continuity errors : sum local = 0.00142834, global = 3.17381e-16, cumulative = 7.26935e-16
DILUPBiCG:  Solving for epsilon, Initial residual = 0.0204364, Final residual = 1.83747e-05, No Iterations 2
DILUPBiCG:  Solving for k, Initial residual = 0.0410712, Final residual = 0.000165014, No Iterations 2
DICPCG:  Solving for G, Initial residual = 0.00399017, Final residual = 0.000314965, No Iterations 11
Before T+T solve
BiCG:  Solving for T+T, Initial residual = 0.00201735, Final residual = 0.000175096, No Iterations 2
Tres = -0.916053
TsRes = -0.0774157
ExecutionTime = 0.11 s



Wall heat fluxes [W]
movingWall -0.166502 7.1457e-15 0.16881 0.00230757
left 0.391585 3.60734e-15 1.23883 1.63042
right -0.821753 2.14339e-15 -1.73226 -2.55401
bottom -0.319383 0 0.324617 0.00523393
frontAndBack 0 0 0 0
sum -0.916053 1.28964e-14 -9.23548e-07 -0.916054


Wall heat fluxes [W]
topAndBottom 0 0 0 0
left 2.5617 0 0 2.5617
right -2.63912 0 0 -2.63912
frontAndBack 0 0 0 0
sum -0.0774157 0 0 -0.0774157

Time = 39

DILUPBiCG:  Solving for Ux, Initial residual = 0.014626, Final residual = 1.69024e-06, No Iterations 2
DILUPBiCG:  Solving for Uy, Initial residual = 0.0186039, Final residual = 0.000182966, No Iterations 1
DICPCG:  Solving for p_rgh, Initial residual = 0.0383926, Final residual = 0.000267154, No Iterations 5
time step continuity errors : sum local = 0.00179403, global = -1.95347e-16, cumulative = 5.31588e-16
DILUPBiCG:  Solving for epsilon, Initial residual = 0.0193618, Final residual = 1.58898e-05, No Iterations 2
DILUPBiCG:  Solving for k, Initial residual = 0.0395111, Final residual = 0.00016243, No Iterations 2
DICPCG:  Solving for G, Initial residual = 0.00425777, Final residual = 0.000276195, No Iterations 11
Before T+T solve
BiCG:  Solving for T+T, Initial residual = 0.001981, Final residual = 0.000186996, No Iterations 3
Tres = -0.896141
TsRes = -0.0688244
ExecutionTime = 0.11 s



Wall heat fluxes [W]
movingWall -0.167644 -2.23231e-15 0.170699 0.0030558
left 0.399457 -3.26048e-15 1.24533 1.64479
right -0.813481 -2.15652e-15 -1.73672 -2.5502
bottom -0.314474 0 0.320689 0.00621564
frontAndBack 0 0 0 0
sum -0.896141 -7.64932e-15 -3.09044e-07 -0.896142


Wall heat fluxes [W]
topAndBottom 0 0 0 0
left 2.55404 0 0 2.55404
right -2.62286 0 0 -2.62286
frontAndBack 0 0 0 0
sum -0.0688244 0 0 -0.0688244

Time = 40

DILUPBiCG:  Solving for Ux, Initial residual = 0.0146315, Final residual = 0.000137246, No Iterations 1
DILUPBiCG:  Solving for Uy, Initial residual = 0.0178031, Final residual = 0.000172879, No Iterations 1
DICPCG:  Solving for p_rgh, Initial residual = 0.0363353, Final residual = 0.00022224, No Iterations 10
time step continuity errors : sum local = 0.000982969, global = 7.78212e-17, cumulative = 6.09409e-16
DILUPBiCG:  Solving for epsilon, Initial residual = 0.0182548, Final residual = 1.41875e-05, No Iterations 2
DILUPBiCG:  Solving for k, Initial residual = 0.0379996, Final residual = 0.000160197, No Iterations 2
DICPCG:  Solving for G, Initial residual = 0.00349719, Final residual = 0.000187266, No Iterations 12
Before T+T solve
BiCG:  Solving for T+T, Initial residual = 0.00197132, Final residual = 0.000192453, No Iterations 2
Tres = -0.873116
TsRes = -0.0754588
ExecutionTime = 0.11 s



Wall heat fluxes [W]
movingWall -0.167674 2.20202e-15 0.169921 0.00224708
left 0.406394 3.4686e-16 1.25069 1.65708
right -0.803196 4.30063e-16 -1.73423 -2.53742
bottom -0.308641 0 0.313621 0.00498013
frontAndBack 0 0 0 0
sum -0.873116 2.97895e-15 2.03607e-07 -0.873115


Wall heat fluxes [W]
topAndBottom 0 0 0 0
left 2.54249 0 0 2.54249
right -2.61795 0 0 -2.61795
frontAndBack 0 0 0 0
sum -0.0754588 0 0 -0.0754588

Time = 41

DILUPBiCG:  Solving for Ux, Initial residual = 0.0138613, Final residual = 0.00013699, No Iterations 1
DILUPBiCG:  Solving for Uy, Initial residual = 0.0175735, Final residual = 0.00016262, No Iterations 1
DICPCG:  Solving for p_rgh, Initial residual = 0.0328799, Final residual = 0.000244445, No Iterations 5
time step continuity errors : sum local = 0.00140347, global = 1.93229e-17, cumulative = 6.28732e-16
DILUPBiCG:  Solving for epsilon, Initial residual = 0.0170014, Final residual = 1.28808e-05, No Iterations 2
DILUPBiCG:  Solving for k, Initial residual = 0.0368148, Final residual = 0.000159905, No Iterations 2
DICPCG:  Solving for G, Initial residual = 0.00381817, Final residual = 0.000245285, No Iterations 12
Before T+T solve
BiCG:  Solving for T+T, Initial residual = 0.00192167, Final residual = 0.000186354, No Iterations 3
Tres = -0.855801
TsRes = -0.0671854
ExecutionTime = 0.11 s



Wall heat fluxes [W]
movingWall -0.168622 -7.27532e-16 0.171719 0.0030971
left 0.412164 1.94242e-15 1.25697 1.66914
right -0.795296 -1.72055e-15 -1.73867 -2.53397
bottom -0.304048 0 0.309982 0.00593475
frontAndBack 0 0 0 0
sum -0.855801 -5.05667e-16 9.95871e-08 -0.855801


Wall heat fluxes [W]
topAndBottom 0 0 0 0
left 2.53462 0 0 2.53462
right -2.60181 0 0 -2.60181
frontAndBack 0 0 0 0
sum -0.0671854 0 0 -0.0671854

Time = 42

DILUPBiCG:  Solving for Ux, Initial residual = 0.0136834, Final residual = 0.000108179, No Iterations 1
DILUPBiCG:  Solving for Uy, Initial residual = 0.0169066, Final residual = 0.000154371, No Iterations 1
DICPCG:  Solving for p_rgh, Initial residual = 0.0309034, Final residual = 0.00028069, No Iterations 5
time step continuity errors : sum local = 0.00165464, global = 1.03513e-16, cumulative = 7.32245e-16
DILUPBiCG:  Solving for epsilon, Initial residual = 0.0158389, Final residual = 1.11402e-05, No Iterations 2
DILUPBiCG:  Solving for k, Initial residual = 0.0357494, Final residual = 0.000151299, No Iterations 2
DICPCG:  Solving for G, Initial residual = 0.00329996, Final residual = 0.000171738, No Iterations 12
Before T+T solve
BiCG:  Solving for T+T, Initial residual = 0.00191055, Final residual = 0.000134768, No Iterations 3
Tres = -0.836668
TsRes = -0.0561627
ExecutionTime = 0.12 s



Wall heat fluxes [W]
movingWall -0.168396 6.85203e-16 0.170748 0.00235255
left 0.41723 -4.16232e-16 1.2622 1.67943
right -0.786809 6.04268e-15 -1.73631 -2.52312
bottom -0.298693 0 0.30336 0.00466677
frontAndBack 0 0 0 0
sum -0.836668 6.31165e-15 2.47237e-07 -0.836668


Wall heat fluxes [W]
topAndBottom 0 0 0 0
left 2.52858 0 0 2.52858
right -2.58474 0 0 -2.58474
frontAndBack 0 0 0 0
sum -0.0561627 0 0 -0.0561627

Time = 43

DILUPBiCG:  Solving for Ux, Initial residual = 0.0126656, Final residual = 0.000105005, No Iterations 1
DILUPBiCG:  Solving for Uy, Initial residual = 0.0167955, Final residual = 0.000149159, No Iterations 1
DICPCG:  Solving for p_rgh, Initial residual = 0.0296335, Final residual = 0.000271917, No Iterations 6
time step continuity errors : sum local = 0.00170354, global = 8.41698e-17, cumulative = 8.16415e-16
DILUPBiCG:  Solving for epsilon, Initial residual = 0.015207, Final residual = 9.67004e-06, No Iterations 2
DILUPBiCG:  Solving for k, Initial residual = 0.0348209, Final residual = 0.000139299, No Iterations 2
DICPCG:  Solving for G, Initial residual = 0.00367383, Final residual = 0.000243773, No Iterations 12
Before T+T solve
BiCG:  Solving for T+T, Initial residual = 0.00183655, Final residual = 0.000181035, No Iterations 1
Tres = -0.81811
TsRes = -0.0692212
ExecutionTime = 0.12 s



Wall heat fluxes [W]
movingWall -0.169068 4.18808e-15 0.1722 0.00313202
left 0.42187 -3.81546e-15 1.26835 1.69022
right -0.776147 6.03983e-15 -1.74075 -2.5169
bottom -0.294765 0 0.300208 0.00544262
frontAndBack 0 0 0 0
sum -0.81811 6.41245e-15 3.86674e-08 -0.81811


Wall heat fluxes [W]
topAndBottom 0 0 0 0
left 2.51388 0 0 2.51388
right -2.58311 0 0 -2.58311
frontAndBack 0 0 0 0
sum -0.0692212 0 0 -0.0692212

Time = 44

DILUPBiCG:  Solving for Ux, Initial residual = 0.0123126, Final residual = 8.61551e-05, No Iterations 1
DILUPBiCG:  Solving for Uy, Initial residual = 0.0159384, Final residual = 0.00013978, No Iterations 1
DICPCG:  Solving for p_rgh, Initial residual = 0.0297296, Final residual = 0.000277343, No Iterations 6
time step continuity errors : sum local = 0.00175296, global = 2.46169e-17, cumulative = 8.41032e-16
DILUPBiCG:  Solving for epsilon, Initial residual = 0.014606, Final residual = 8.53372e-06, No Iterations 2
DILUPBiCG:  Solving for k, Initial residual = 0.0340323, Final residual = 0.000126452, No Iterations 2
DICPCG:  Solving for G, Initial residual = 0.00389067, Final residual = 0.00027369, No Iterations 11
Before T+T solve
BiCG:  Solving for T+T, Initial residual = 0.00177688, Final residual = 0.000175595, No Iterations 3
Tres = -0.802488
TsRes = -0.0643317
ExecutionTime = 0.12 s



Wall heat fluxes [W]
movingWall -0.169208 -6.99178e-16 0.172414 0.00320641
left 0.425925 -4.7173e-15 1.27481 1.70074
right -0.768418 9.06548e-15 -1.74305 -2.51146
bottom -0.290787 0 0.29582 0.00503279
frontAndBack 0 0 0 0
sum -0.802488 3.64901e-15 -5.34907e-07 -0.802488


Wall heat fluxes [W]
topAndBottom 0 0 0 0
left 2.50582 0 0 2.50582
right -2.57016 0 0 -2.57016
frontAndBack 0 0 0 0
sum -0.0643317 0 0 -0.0643317

Time = 45

DILUPBiCG:  Solving for Ux, Initial residual = 0.0120554, Final residual = 8.33883e-05, No Iterations 1
DILUPBiCG:  Solving for Uy, Initial residual = 0.0148876, Final residual = 0.00012735, No Iterations 1
DICPCG:  Solving for p_rgh, Initial residual = 0.0268393, Final residual = 0.000231907, No Iterations 6
time step continuity errors : sum local = 0.00147643, global = -4.11336e-16, cumulative = 4.29696e-16
DILUPBiCG:  Solving for epsilon, Initial residual = 0.0140019, Final residual = 7.73997e-06, No Iterations 2
DILUPBiCG:  Solving for k, Initial residual = 0.0333129, Final residual = 0.000117809, No Iterations 2
DICPCG:  Solving for G, Initial residual = 0.00271331, Final residual = 0.000253458, No Iterations 11
Before T+T solve
BiCG:  Solving for T+T, Initial residual = 0.00182003, Final residual = 0.00012927, No Iterations 3
Tres = -0.784497
TsRes = -0.0529474
ExecutionTime = 0.12 s



Wall heat fluxes [W]
movingWall -0.168048 -3.87047e-15 0.170314 0.0022661
left 0.429728 -3.88483e-15 1.27913 1.70886
right -0.759903 -1.03576e-14 -1.73953 -2.49943
bottom -0.286274 0 0.290082 0.0038088
frontAndBack 0 0 0 0
sum -0.784497 -1.81129e-14 -4.79532e-07 -0.784497


Wall heat fluxes [W]
topAndBottom 0 0 0 0
left 2.50107 0 0 2.50107
right -2.55402 0 0 -2.55402
frontAndBack 0 0 0 0
sum -0.0529474 0 0 -0.0529474

Time = 46

DILUPBiCG:  Solving for Ux, Initial residual = 0.0108417, Final residual = 7.59694e-05, No Iterations 1
DILUPBiCG:  Solving for Uy, Initial residual = 0.0147883, Final residual = 0.000121652, No Iterations 1
DICPCG:  Solving for p_rgh, Initial residual = 0.0244319, Final residual = 0.000132458, No Iterations 6
time step continuity errors : sum local = 0.000863466, global = -2.14447e-17, cumulative = 4.08251e-16
DILUPBiCG:  Solving for epsilon, Initial residual = 0.0134347, Final residual = 7.10631e-06, No Iterations 2
DILUPBiCG:  Solving for k, Initial residual = 0.0325185, Final residual = 0.000110203, No Iterations 2
DICPCG:  Solving for G, Initial residual = 0.0034741, Final residual = 0.000201545, No Iterations 12
Before T+T solve
BiCG:  Solving for T+T, Initial residual = 0.00174743, Final residual = 0.000167695, No Iterations 1
Tres = -0.767371
TsRes = -0.0653553
ExecutionTime = 0.13 s



Wall heat fluxes [W]
movingWall -0.168192 7.03242e-16 0.171464 0.0032714
left 0.433518 -7.35343e-15 1.28479 1.71831
right -0.7493 8.64142e-15 -1.74442 -2.49372
bottom -0.283397 0 0.288166 0.00476985
frontAndBack 0 0 0 0
sum -0.767371 1.99123e-15 -6.94683e-08 -0.767371


Wall heat fluxes [W]
topAndBottom 0 0 0 0
left 2.48698 0 0 2.48698
right -2.55234 0 0 -2.55234
frontAndBack 0 0 0 0
sum -0.0653553 0 0 -0.0653553

Time = 47

DILUPBiCG:  Solving for Ux, Initial residual = 0.0107108, Final residual = 7.75393e-05, No Iterations 1
DILUPBiCG:  Solving for Uy, Initial residual = 0.0134942, Final residual = 0.000118224, No Iterations 1
DICPCG:  Solving for p_rgh, Initial residual = 0.0238926, Final residual = 5.42768e-05, No Iterations 6
time step continuity errors : sum local = 0.000244967, global = 1.69407e-17, cumulative = 4.25192e-16
DILUPBiCG:  Solving for epsilon, Initial residual = 0.0124483, Final residual = 6.7355e-06, No Iterations 2
DILUPBiCG:  Solving for k, Initial residual = 0.0311978, Final residual = 9.95956e-05, No Iterations 2
DICPCG:  Solving for G, Initial residual = 0.00360903, Final residual = 0.000353427, No Iterations 11
Before T+T solve
BiCG:  Solving for T+T, Initial residual = 0.00168339, Final residual = 7.25206e-05, No Iterations 4
Tres = -0.752653
TsRes = -0.0579414
ExecutionTime = 0.13 s



Wall heat fluxes [W]
movingWall -0.167838 -1.79541e-15 0.170975 0.00313663
left 0.437408 -1.2487e-15 1.29082 1.72823
right -0.741774 4.7498e-15 -1.74649 -2.48826
bottom -0.280449 0 0.284691 0.00424213
frontAndBack 0 0 0 0
sum -0.752653 1.7057e-15 1.56086e-07 -0.752653


Wall heat fluxes [W]
topAndBottom 0 0 0 0
left 2.48042 0 0 2.48042
right -2.53836 0 0 -2.53836
frontAndBack 0 0 0 0
sum -0.0579414 0 0 -0.0579414

Time = 48

DILUPBiCG:  Solving for Ux, Initial residual = 0.0107464, Final residual = 7.84873e-05, No Iterations 1
DILUPBiCG:  Solving for Uy, Initial residual = 0.0130904, Final residual = 0.000113781, No Iterations 1
DICPCG:  Solving for p_rgh, Initial residual = 0.0221571, Final residual = 0.000119711, No Iterations 6
time step continuity errors : sum local = 0.000792057, global = -5.05573e-17, cumulative = 3.74634e-16
DILUPBiCG:  Solving for epsilon, Initial residual = 0.0116488, Final residual = 6.44065e-06, No Iterations 2
DILUPBiCG:  Solving for k, Initial residual = 0.0298675, Final residual = 9.24674e-05, No Iterations 2
DICPCG:  Solving for G, Initial residual = 0.0024482, Final residual = 0.000140235, No Iterations 11
Before T+T solve
BiCG:  Solving for T+T, Initial residual = 0.00167709, Final residual = 0.000158289, No Iterations 3
Tres = -0.735118
TsRes = -0.0478105
ExecutionTime = 0.13 s



Wall heat fluxes [W]
movingWall -0.166215 -3.5256e-16 0.16855 0.00233454
left 0.441449 -7.63092e-16 1.29467 1.73612
right -0.73342 -1.29542e-15 -1.74329 -2.47671
bottom -0.276931 0 0.280068 0.00313676
frontAndBack 0 0 0 0
sum -0.735118 -2.41107e-15 -3.08171e-07 -0.735118


Wall heat fluxes [W]
topAndBottom 0 0 0 0
left 2.47659 0 0 2.47659
right -2.5244 0 0 -2.5244
frontAndBack 0 0 0 0
sum -0.0478105 0 0 -0.0478105

Time = 49

DILUPBiCG:  Solving for Ux, Initial residual = 0.00949009, Final residual = 6.98023e-05, No Iterations 1
DILUPBiCG:  Solving for Uy, Initial residual = 0.0134196, Final residual = 0.000109, No Iterations 1
DICPCG:  Solving for p_rgh, Initial residual = 0.0202029, Final residual = 8.94697e-05, No Iterations 11
time step continuity errors : sum local = 0.000369958, global = 2.80183e-16, cumulative = 6.54817e-16
DILUPBiCG:  Solving for epsilon, Initial residual = 0.0110652, Final residual = 6.15468e-06, No Iterations 2
DILUPBiCG:  Solving for k, Initial residual = 0.028726, Final residual = 8.8948e-05, No Iterations 2
DICPCG:  Solving for G, Initial residual = 0.00323054, Final residual = 0.000232858, No Iterations 11
Before T+T solve
BiCG:  Solving for T+T, Initial residual = 0.0016901, Final residual = 0.000156017, No Iterations 1
Tres = -0.718717
TsRes = -0.0599828
ExecutionTime = 0.13 s



Wall heat fluxes [W]
movingWall -0.165951 -5.44654e-16 0.169315 0.00336367
left 0.445619 6.24348e-15 1.30008 1.7457
right -0.723371 3.02979e-15 -1.74864 -2.47201
bottom -0.275014 0 0.27924 0.0042254
frontAndBack 0 0 0 0
sum -0.718717 8.72862e-15 -2.68884e-07 -0.718717


Wall heat fluxes [W]
topAndBottom 0 0 0 0
left 2.46325 0 0 2.46325
right -2.52323 0 0 -2.52323
frontAndBack 0 0 0 0
sum -0.0599828 0 0 -0.0599828

Time = 50

DILUPBiCG:  Solving for Ux, Initial residual = 0.0093643, Final residual = 6.83372e-05, No Iterations 1
DILUPBiCG:  Solving for Uy, Initial residual = 0.0118387, Final residual = 0.00010717, No Iterations 1
DICPCG:  Solving for p_rgh, Initial residual = 0.0198172, Final residual = 0.0001058, No Iterations 6
time step continuity errors : sum local = 0.000702567, global = 2.67345e-16, cumulative = 9.22162e-16
DILUPBiCG:  Solving for epsilon, Initial residual = 0.0104615, Final residual = 5.76622e-06, No Iterations 2
DILUPBiCG:  Solving for k, Initial residual = 0.0274974, Final residual = 8.65128e-05, No Iterations 2
DICPCG:  Solving for G, Initial residual = 0.00337307, Final residual = 0.000272752, No Iterations 12
Before T+T solve
BiCG:  Solving for T+T, Initial residual = 0.00159551, Final residual = 6.58761e-05, No Iterations 4
Tres = -0.704113
TsRes = -0.0531176
ExecutionTime = 0.13 s



Wall heat fluxes [W]
movingWall -0.165068 -3.4404e-16 0.168172 0.0031035
left 0.450194 7.63092e-16 1.30565 1.75584
right -0.716378 1.38407e-14 -1.7502 -2.46658
bottom -0.272862 0 0.276381 0.00351942
frontAndBack 0 0 0 0
sum -0.704113 1.42598e-14 1.29736e-07 -0.704113


Wall heat fluxes [W]
topAndBottom 0 0 0 0
left 2.45778 0 0 2.45778
right -2.5109 0 0 -2.5109
frontAndBack 0 0 0 0
sum -0.0531176 0 0 -0.0531176

Time = 51

DILUPBiCG:  Solving for Ux, Initial residual = 0.00957854, Final residual = 7.24894e-05, No Iterations 1
DILUPBiCG:  Solving for Uy, Initial residual = 0.0118487, Final residual = 0.000105766, No Iterations 1
DICPCG:  Solving for p_rgh, Initial residual = 0.018572, Final residual = 8.48411e-05, No Iterations 11
time step continuity errors : sum local = 0.000347375, global = 2.35581e-17, cumulative = 9.4572e-16
DILUPBiCG:  Solving for epsilon, Initial residual = 0.00991325, Final residual = 5.41877e-06, No Iterations 2
DILUPBiCG:  Solving for k, Initial residual = 0.0263569, Final residual = 8.55877e-05, No Iterations 2
DICPCG:  Solving for G, Initial residual = 0.00212951, Final residual = 5.08035e-05, No Iterations 11
Before T+T solve
BiCG:  Solving for T+T, Initial residual = 0.00158956, Final residual = 0.000150828, No Iterations 3
Tres = -0.687046
TsRes = -0.0433408
ExecutionTime = 0.14 s



Wall heat fluxes [W]
movingWall -0.162996 -3.60736e-16 0.165362 0.00236532
left 0.454929 1.2487e-15 1.30904 1.76397
right -0.708827 1.73039e-15 -1.74714 -2.45597
bottom -0.270152 0 0.272744 0.00259125
frontAndBack 0 0 0 0
sum -0.687046 2.61835e-15 -1.19073e-07 -0.687046


Wall heat fluxes [W]
topAndBottom 0 0 0 0
left 2.45483 0 0 2.45483
right -2.49817 0 0 -2.49817
frontAndBack 0 0 0 0
sum -0.0433408 0 0 -0.0433408

Time = 52

DILUPBiCG:  Solving for Ux, Initial residual = 0.00844716, Final residual = 6.27156e-05, No Iterations 1
DILUPBiCG:  Solving for Uy, Initial residual = 0.0123578, Final residual = 0.000101605, No Iterations 1
DICPCG:  Solving for p_rgh, Initial residual = 0.0172157, Final residual = 0.00010488, No Iterations 6
time step continuity errors : sum local = 0.00068027, global = -3.74018e-16, cumulative = 5.71702e-16
DILUPBiCG:  Solving for epsilon, Initial residual = 0.00942538, Final residual = 5.07079e-06, No Iterations 2
DILUPBiCG:  Solving for k, Initial residual = 0.0252071, Final residual = 8.83637e-05, No Iterations 2
DICPCG:  Solving for G, Initial residual = 0.00286751, Final residual = 0.000183562, No Iterations 12
Before T+T solve
BiCG:  Solving for T+T, Initial residual = 0.0016018, Final residual = 0.000143989, No Iterations 1
Tres = -0.671119
TsRes = -0.0538672
ExecutionTime = 0.14 s



Wall heat fluxes [W]
movingWall -0.162234 -1.75384e-15 0.165575 0.00334148
left 0.460067 -2.49739e-15 1.31395 1.77402
right -0.700001 -1.2128e-14 -1.75204 -2.45204
bottom -0.268952 0 0.272511 0.00355898
frontAndBack 0 0 0 0
sum -0.671119 -1.63792e-14 1.43329e-07 -0.671119


Wall heat fluxes [W]
topAndBottom 0 0 0 0
left 2.44324 0 0 2.44324
right -2.49711 0 0 -2.49711
frontAndBack 0 0 0 0
sum -0.0538672 0 0 -0.0538672

Time = 53

DILUPBiCG:  Solving for Ux, Initial residual = 0.00848681, Final residual = 6.85186e-05, No Iterations 1
DILUPBiCG:  Solving for Uy, Initial residual = 0.0110504, Final residual = 0.000109562, No Iterations 1
DICPCG:  Solving for p_rgh, Initial residual = 0.0177571, Final residual = 7.60017e-05, No Iterations 11
time step continuity errors : sum local = 0.000311363, global = -8.44386e-17, cumulative = 4.87263e-16
DILUPBiCG:  Solving for epsilon, Initial residual = 0.00883301, Final residual = 4.67865e-06, No Iterations 2
DILUPBiCG:  Solving for k, Initial residual = 0.0240042, Final residual = 9.05487e-05, No Iterations 2
DICPCG:  Solving for G, Initial residual = 0.00298647, Final residual = 0.000227822, No Iterations 12
Before T+T solve
BiCG:  Solving for T+T, Initial residual = 0.00150271, Final residual = 5.99212e-05, No Iterations 4
Tres = -0.656945
TsRes = -0.0467412
ExecutionTime = 0.14 s



Wall heat fluxes [W]
movingWall -0.160864 -4.63107e-15 0.163925 0.00306139
left 0.46546 2.15053e-15 1.31897 1.78443
right -0.694143 1.73053e-15 -1.75332 -2.44746
bottom -0.267398 0 0.270428 0.00302968
frontAndBack 0 0 0 0
sum -0.656945 -7.50011e-16 1.72962e-07 -0.656944


Wall heat fluxes [W]
topAndBottom 0 0 0 0
left 2.43936 0 0 2.43936
right -2.4861 0 0 -2.4861
frontAndBack 0 0 0 0
sum -0.0467412 0 0 -0.0467412

Time = 54

DILUPBiCG:  Solving for Ux, Initial residual = 0.00877959, Final residual = 7.03641e-05, No Iterations 1
DILUPBiCG:  Solving for Uy, Initial residual = 0.011121, Final residual = 0.000105121, No Iterations 1
DICPCG:  Solving for p_rgh, Initial residual = 0.0189013, Final residual = 0.000105338, No Iterations 6
time step continuity errors : sum local = 0.000685466, global = 2.31379e-16, cumulative = 7.18642e-16
DILUPBiCG:  Solving for epsilon, Initial residual = 0.00827581, Final residual = 4.26241e-06, No Iterations 2
DILUPBiCG:  Solving for k, Initial residual = 0.0226572, Final residual = 9.12801e-05, No Iterations 2
DICPCG:  Solving for G, Initial residual = 0.00193508, Final residual = 3.5859e-05, No Iterations 10
Before T+T solve
BiCG:  Solving for T+T, Initial residual = 0.00150645, Final residual = 0.000147021, No Iterations 1
Tres = -0.639117
TsRes = -0.0533201
ExecutionTime = 0.14 s



Wall heat fluxes [W]
movingWall -0.158589 1.76199e-15 0.160924 0.00233518
left 0.471171 3.19111e-15 1.32208 1.79325
right -0.68629 3.90035e-15 -1.75049 -2.43678
bottom -0.26541 0 0.26749 0.00208006
frontAndBack 0 0 0 0
sum -0.639117 8.85345e-15 1.24151e-07 -0.639117


Wall heat fluxes [W]
topAndBottom 0 0 0 0
left 2.43156 0 0 2.43156
right -2.48488 0 0 -2.48488
frontAndBack 0 0 0 0
sum -0.0533201 0 0 -0.0533201

Time = 55

DILUPBiCG:  Solving for Ux, Initial residual = 0.00780452, Final residual = 6.94015e-05, No Iterations 1
DILUPBiCG:  Solving for Uy, Initial residual = 0.01196, Final residual = 0.000111292, No Iterations 1
DICPCG:  Solving for p_rgh, Initial residual = 0.0201015, Final residual = 0.000184173, No Iterations 10
time step continuity errors : sum local = 0.000738474, global = -1.28908e-16, cumulative = 5.89734e-16
DILUPBiCG:  Solving for epsilon, Initial residual = 0.00778704, Final residual = 3.82368e-06, No Iterations 2
DILUPBiCG:  Solving for k, Initial residual = 0.0213977, Final residual = 9.04285e-05, No Iterations 2
DICPCG:  Solving for G, Initial residual = 0.00252883, Final residual = 0.000207315, No Iterations 12
Before T+T solve
BiCG:  Solving for T+T, Initial residual = 0.00145829, Final residual = 0.000145722, No Iterations 3
Tres = -0.625823
TsRes = -0.0458087
ExecutionTime = 0.15 s



Wall heat fluxes [W]
movingWall -0.157174 -1.4571e-15 0.160643 0.00346918
left 0.476983 6.9372e-17 1.32644 1.80343
right -0.68115 -3.46566e-15 -1.75481 -2.43596
bottom -0.264481 0 0.26772 0.0032382
frontAndBack 0 0 0 0
sum -0.625823 -4.85339e-15 6.77055e-08 -0.625822


Wall heat fluxes [W]
topAndBottom 0 0 0 0
left 2.42816 0 0 2.42816
right -2.47397 0 0 -2.47397
frontAndBack 0 0 0 0
sum -0.0458087 0 0 -0.0458087

Time = 56

DILUPBiCG:  Solving for Ux, Initial residual = 0.00835019, Final residual = 6.87845e-05, No Iterations 1
DILUPBiCG:  Solving for Uy, Initial residual = 0.0101115, Final residual = 1.44808e-06, No Iterations 2
DICPCG:  Solving for p_rgh, Initial residual = 0.0194964, Final residual = 0.000188423, No Iterations 5
time step continuity errors : sum local = 0.00098492, global = -5.74394e-17, cumulative = 5.32295e-16
DILUPBiCG:  Solving for epsilon, Initial residual = 0.00731424, Final residual = 3.48613e-06, No Iterations 2
DILUPBiCG:  Solving for k, Initial residual = 0.0199966, Final residual = 9.09179e-05, No Iterations 2
DICPCG:  Solving for G, Initial residual = 0.00207448, Final residual = 6.18186e-05, No Iterations 11
Before T+T solve
BiCG:  Solving for T+T, Initial residual = 0.00149272, Final residual = 0.000143241, No Iterations 1
Tres = -0.608584
TsRes = -0.0524245
ExecutionTime = 0.15 s



Wall heat fluxes [W]
movingWall -0.154675 -4.80285e-17 0.157084 0.00240829
left 0.483097 -3.4686e-16 1.32981 1.81291
right -0.674309 -2.6005e-15 -1.75152 -2.42583
bottom -0.262697 0 0.26462 0.00192303
frontAndBack 0 0 0 0
sum -0.608584 -2.99539e-15 -7.35288e-08 -0.608584


Wall heat fluxes [W]
topAndBottom 0 0 0 0
left 2.4206 0 0 2.4206
right -2.47303 0 0 -2.47303
frontAndBack 0 0 0 0
sum -0.0524245 0 0 -0.0524245

Time = 57

DILUPBiCG:  Solving for Ux, Initial residual = 0.00728545, Final residual = 6.83953e-05, No Iterations 1
DILUPBiCG:  Solving for Uy, Initial residual = 0.0109779, Final residual = 0.000109248, No Iterations 1
DICPCG:  Solving for p_rgh, Initial residual = 0.0193057, Final residual = 0.000121693, No Iterations 9
time step continuity errors : sum local = 0.000478949, global = 1.85822e-16, cumulative = 7.18117e-16
DILUPBiCG:  Solving for epsilon, Initial residual = 0.00686854, Final residual = 3.24539e-06, No Iterations 2
DILUPBiCG:  Solving for k, Initial residual = 0.0186435, Final residual = 9.17908e-05, No Iterations 2
DICPCG:  Solving for G, Initial residual = 0.00235764, Final residual = 0.000201852, No Iterations 12
Before T+T solve
BiCG:  Solving for T+T, Initial residual = 0.00139704, Final residual = 0.000138827, No Iterations 3
Tres = -0.595636
TsRes = -0.0442239
ExecutionTime = 0.15 s



Wall heat fluxes [W]
movingWall -0.152949 -1.06529e-15 0.156325 0.0033759
left 0.48928 2.70551e-15 1.33385 1.82313
right -0.670166 6.50158e-15 -1.755 -2.42516
bottom -0.261801 0 0.264828 0.00302693
frontAndBack 0 0 0 0
sum -0.595636 8.1418e-15 2.93351e-08 -0.595636


Wall heat fluxes [W]
topAndBottom 0 0 0 0
left 2.41845 0 0 2.41845
right -2.46267 0 0 -2.46267
frontAndBack 0 0 0 0
sum -0.0442239 0 0 -0.0442239

Time = 58

DILUPBiCG:  Solving for Ux, Initial residual = 0.00768877, Final residual = 6.50954e-05, No Iterations 1
DILUPBiCG:  Solving for Uy, Initial residual = 0.00919239, Final residual = 1.25023e-06, No Iterations 2
DICPCG:  Solving for p_rgh, Initial residual = 0.0175323, Final residual = 0.000159407, No Iterations 5
time step continuity errors : sum local = 0.000823171, global = -3.92809e-16, cumulative = 3.25307e-16
DILUPBiCG:  Solving for epsilon, Initial residual = 0.00617494, Final residual = 3.33632e-06, No Iterations 2
DILUPBiCG:  Solving for k, Initial residual = 0.0169237, Final residual = 9.64493e-05, No Iterations 2
DICPCG:  Solving for G, Initial residual = 0.00199145, Final residual = 7.29082e-05, No Iterations 11
Before T+T solve
BiCG:  Solving for T+T, Initial residual = 0.00142405, Final residual = 0.000137597, No Iterations 1
Tres = -0.579293
TsRes = -0.0496169
ExecutionTime = 0.15 s



Wall heat fluxes [W]
movingWall -0.15036 7.12398e-16 0.152836 0.0024759
left 0.495644 -8.04715e-15 1.3371 1.83274
right -0.66443 -8.23627e-15 -1.75197 -2.4164
bottom -0.260146 0 0.262033 0.00188682
frontAndBack 0 0 0 0
sum -0.579293 -1.5571e-14 -4.83587e-08 -0.579293


Wall heat fluxes [W]
topAndBottom 0 0 0 0
left 2.41197 0 0 2.41197
right -2.46159 0 0 -2.46159
frontAndBack 0 0 0 0
sum -0.0496169 0 0 -0.0496169

Time = 59

DILUPBiCG:  Solving for Ux, Initial residual = 0.00661407, Final residual = 6.26611e-05, No Iterations 1
DILUPBiCG:  Solving for Uy, Initial residual = 0.00971062, Final residual = 1.26935e-06, No Iterations 2
DICPCG:  Solving for p_rgh, Initial residual = 0.0169584, Final residual = 0.000159132, No Iterations 6
time step continuity errors : sum local = 0.000942858, global = 1.65701e-16, cumulative = 4.91008e-16
DILUPBiCG:  Solving for epsilon, Initial residual = 0.00559033, Final residual = 3.41624e-06, No Iterations 2
[...]
DILUPBiCG:  Solving for k, Initial residual = 1.64917e-12, Final residual = 3.04453e-15, No Iterations 2
DICPCG:  Solving for G, Initial residual = 1.62743e-12, Final residual = 9.19224e-14, No Iterations 11
Before T+T solve
BiCG:  Solving for T+T, Initial residual = 3.22758e-13, Final residual = 3.21771e-14, No Iterations 2
Tres = -1.07034e-10
TsRes = -8.72147e-12
ExecutionTime = 2.27 s



Wall heat fluxes [W]
movingWall -0.0422668 -1.38355e-15 0.0422668 6.99295e-13
left 0.725903 -1.94242e-15 1.50865 2.23456
right -0.501397 3.06518e-15 -1.73316 -2.23456
bottom -0.18224 0 0.18224 5.55889e-13
frontAndBack 0 0 0 0
sum -1.07031e-10 -2.60789e-16 1.84713e-13 -1.06847e-10


Wall heat fluxes [W]
topAndBottom 0 0 0 0
left 2.23456 0 0 2.23456
right -2.23456 0 0 -2.23456
frontAndBack 0 0 0 0
sum -8.72191e-12 0 0 -8.72191e-12

Time = 987

DILUPBiCG:  Solving for Ux, Initial residual = 1.11386e-12, Final residual = 9.55347e-15, No Iterations 1
DILUPBiCG:  Solving for Uy, Initial residual = 1.42768e-12, Final residual = 2.0489e-18, No Iterations 3
DICPCG:  Solving for p_rgh, Initial residual = 1.82528e-12, Final residual = 6.85746e-15, No Iterations 11
time step continuity errors : sum local = 2.93007e-14, global = -8.2321e-17, cumulative = 1.48742e-15
DILUPBiCG:  Solving for epsilon, Initial residual = 7.98147e-13, Final residual = 3.18816e-16, No Iterations 2
DILUPBiCG:  Solving for k, Initial residual = 1.60993e-12, Final residual = 2.9678e-15, No Iterations 2
DICPCG:  Solving for G, Initial residual = 2.08541e-12, Final residual = 9.82208e-14, No Iterations 10
Before T+T solve
BiCG:  Solving for T+T, Initial residual = 3.18024e-13, Final residual = 1.111e-14, No Iterations 4
Tres = -1.04726e-10
TsRes = -7.3659e-12
ExecutionTime = 2.27 s



Wall heat fluxes [W]
movingWall -0.0422668 -4.5947e-16 0.0422668 7.34399e-13
left 0.725903 1.38744e-16 1.50865 2.23456
right -0.501397 -2.84428e-15 -1.73316 -2.23456
bottom -0.18224 0 0.18224 6.04627e-13
frontAndBack 0 0 0 0
sum -1.04722e-10 -3.16501e-15 1.03142e-12 -1.03694e-10


Wall heat fluxes [W]
topAndBottom 0 0 0 0
left 2.23456 0 0 2.23456
right -2.23456 0 0 -2.23456
frontAndBack 0 0 0 0
sum -7.36611e-12 0 0 -7.36611e-12

Time = 988

DILUPBiCG:  Solving for Ux, Initial residual = 1.0812e-12, Final residual = 9.16691e-15, No Iterations 1
DILUPBiCG:  Solving for Uy, Initial residual = 1.33496e-12, Final residual = 3.0153e-15, No Iterations 2
DICPCG:  Solving for p_rgh, Initial residual = 1.73237e-12, Final residual = 1.37353e-14, No Iterations 5
time step continuity errors : sum local = 8.15174e-14, global = -1.43996e-16, cumulative = 1.34342e-15
DILUPBiCG:  Solving for epsilon, Initial residual = 7.79267e-13, Final residual = 3.11029e-16, No Iterations 2
DILUPBiCG:  Solving for k, Initial residual = 1.57315e-12, Final residual = 2.90847e-15, No Iterations 2
DICPCG:  Solving for G, Initial residual = 1.80376e-12, Final residual = 1.03447e-13, No Iterations 10
Before T+T solve
BiCG:  Solving for T+T, Initial residual = 2.99908e-13, Final residual = 2.67659e-14, No Iterations 2
Tres = -1.01893e-10
TsRes = -7.69548e-12
ExecutionTime = 2.28 s



Wall heat fluxes [W]
movingWall -0.0422668 -1.63065e-15 0.0422668 5.32178e-13
left 0.725903 -1.80367e-15 1.50865 2.23456
right -0.501397 -4.37633e-15 -1.73316 -2.23456
bottom -0.18224 0 0.18224 3.86413e-13
frontAndBack 0 0 0 0
sum -1.01885e-10 -7.81065e-15 3.15387e-13 -1.01578e-10


Wall heat fluxes [W]
topAndBottom 0 0 0 0
left 2.23456 0 0 2.23456
right -2.23456 0 0 -2.23456
frontAndBack 0 0 0 0
sum -7.69518e-12 0 0 -7.69518e-12

Time = 989

DILUPBiCG:  Solving for Ux, Initial residual = 9.68157e-13, Final residual = 9.02483e-15, No Iterations 1
DILUPBiCG:  Solving for Uy, Initial residual = 1.51863e-12, Final residual = 3.24394e-16, No Iterations 2
DICPCG:  Solving for p_rgh, Initial residual = 1.71278e-12, Final residual = 7.76849e-15, No Iterations 11
time step continuity errors : sum local = 3.3416e-14, global = -6.61744e-17, cumulative = 1.27725e-15
DILUPBiCG:  Solving for epsilon, Initial residual = 7.5966e-13, Final residual = 3.0287e-16, No Iterations 2
DILUPBiCG:  Solving for k, Initial residual = 1.53669e-12, Final residual = 2.83025e-15, No Iterations 2
DICPCG:  Solving for G, Initial residual = 1.85819e-12, Final residual = 1.36668e-13, No Iterations 10
Before T+T solve
BiCG:  Solving for T+T, Initial residual = 2.99119e-13, Final residual = 1.0443e-14, No Iterations 4
Tres = -9.98363e-11
TsRes = -6.58214e-12
ExecutionTime = 2.28 s



Wall heat fluxes [W]
movingWall -0.0422668 -8.5997e-16 0.0422668 7.82638e-13
left 0.725903 -8.32464e-16 1.50865 2.23456
right -0.501397 -6.56582e-16 -1.73316 -2.23456
bottom -0.18224 0 0.18224 6.72767e-13
frontAndBack 0 0 0 0
sum -9.98329e-11 -2.34902e-15 8.60201e-13 -9.89751e-11


Wall heat fluxes [W]
topAndBottom 0 0 0 0
left 2.23456 0 0 2.23456
right -2.23456 0 0 -2.23456
frontAndBack 0 0 0 0
sum -6.58229e-12 0 0 -6.58229e-12

Time = 990

DILUPBiCG:  Solving for Ux, Initial residual = 1.03862e-12, Final residual = 8.7682e-15, No Iterations 1
DILUPBiCG:  Solving for Uy, Initial residual = 1.16902e-12, Final residual = 3.8632e-16, No Iterations 2
DICPCG:  Solving for p_rgh, Initial residual = 1.63735e-12, Final residual = 1.29343e-14, No Iterations 5
time step continuity errors : sum local = 7.6976e-14, global = -2.45375e-16, cumulative = 1.03188e-15
DILUPBiCG:  Solving for epsilon, Initial residual = 7.41802e-13, Final residual = 2.95935e-16, No Iterations 2
DILUPBiCG:  Solving for k, Initial residual = 1.49718e-12, Final residual = 2.76572e-15, No Iterations 2
DICPCG:  Solving for G, Initial residual = 1.59973e-12, Final residual = 8.63821e-14, No Iterations 10
Before T+T solve
BiCG:  Solving for T+T, Initial residual = 2.85458e-13, Final residual = 2.4768e-14, No Iterations 2
Tres = -9.72169e-11
TsRes = -6.98076e-12
ExecutionTime = 2.28 s



Wall heat fluxes [W]
movingWall -0.0422668 -2.0178e-16 0.0422668 5.53148e-13
left 0.725903 -9.01836e-15 1.50865 2.23456
right -0.501397 2.1871e-16 -1.73316 -2.23456
bottom -0.18224 0 0.18224 4.13392e-13
frontAndBack 0 0 0 0
sum -9.72088e-11 -9.00143e-15 5.71487e-13 -9.66463e-11


Wall heat fluxes [W]
topAndBottom 0 0 0 0
left 2.23456 0 0 2.23456
right -2.23456 0 0 -2.23456
frontAndBack 0 0 0 0
sum -6.98064e-12 0 0 -6.98064e-12

Time = 991

DILUPBiCG:  Solving for Ux, Initial residual = 9.33734e-13, Final residual = 8.52865e-15, No Iterations 1
DILUPBiCG:  Solving for Uy, Initial residual = 1.39314e-12, Final residual = 3.7738e-16, No Iterations 2
DICPCG:  Solving for p_rgh, Initial residual = 1.62819e-12, Final residual = 6.72929e-15, No Iterations 11
time step continuity errors : sum local = 2.8202e-14, global = -1.03762e-16, cumulative = 9.28114e-16
DILUPBiCG:  Solving for epsilon, Initial residual = 7.22776e-13, Final residual = 2.88688e-16, No Iterations 2
DILUPBiCG:  Solving for k, Initial residual = 1.46137e-12, Final residual = 2.69122e-15, No Iterations 2
DICPCG:  Solving for G, Initial residual = 1.66365e-12, Final residual = 1.51657e-13, No Iterations 10
Before T+T solve
BiCG:  Solving for T+T, Initial residual = 2.85346e-13, Final residual = 2.78741e-14, No Iterations 2
Tres = -9.49088e-11
TsRes = -7.55852e-12
ExecutionTime = 2.28 s



Wall heat fluxes [W]
movingWall -0.0422668 -1.74741e-15 0.0422668 6.55122e-13
left 0.725903 -3.88483e-15 1.50865 2.23456
right -0.501397 1.96935e-15 -1.73316 -2.23456
bottom -0.18224 0 0.18224 5.47423e-13
frontAndBack 0 0 0 0
sum -9.49039e-11 -3.66289e-15 4.23356e-13 -9.44842e-11


Wall heat fluxes [W]
topAndBottom 0 0 0 0
left 2.23456 0 0 2.23456
right -2.23456 0 0 -2.23456
frontAndBack 0 0 0 0
sum -7.5584e-12 0 0 -7.5584e-12

Time = 992

DILUPBiCG:  Solving for Ux, Initial residual = 9.92365e-13, Final residual = 8.44292e-15, No Iterations 1
DILUPBiCG:  Solving for Uy, Initial residual = 1.21882e-12, Final residual = 4.10257e-15, No Iterations 2
DICPCG:  Solving for p_rgh, Initial residual = 1.61326e-12, Final residual = 1.23227e-14, No Iterations 5
time step continuity errors : sum local = 7.32501e-14, global = 4.10282e-17, cumulative = 9.69142e-16
DILUPBiCG:  Solving for epsilon, Initial residual = 7.04764e-13, Final residual = 2.82882e-16, No Iterations 2
DILUPBiCG:  Solving for k, Initial residual = 1.42315e-12, Final residual = 2.63374e-15, No Iterations 2
DICPCG:  Solving for G, Initial residual = 1.54384e-12, Final residual = 5.64935e-14, No Iterations 10
Before T+T solve
BiCG:  Solving for T+T, Initial residual = 2.81612e-13, Final residual = 9.6401e-15, No Iterations 4
Tres = -9.27523e-11
TsRes = -6.18796e-12
ExecutionTime = 2.29 s



Wall heat fluxes [W]
movingWall -0.0422668 -2.62085e-15 0.0422668 5.99791e-13
left 0.725903 2.35865e-15 1.50865 2.23456
right -0.501397 -6.57638e-16 -1.73316 -2.23456
bottom -0.18224 0 0.18224 4.72011e-13
frontAndBack 0 0 0 0
sum -9.27502e-11 -9.19845e-16 7.65027e-13 -9.19861e-11


Wall heat fluxes [W]
topAndBottom 0 0 0 0
left 2.23456 0 0 2.23456
right -2.23456 0 0 -2.23456
frontAndBack 0 0 0 0
sum -6.18794e-12 0 0 -6.18794e-12

Time = 993

DILUPBiCG:  Solving for Ux, Initial residual = 9.55903e-13, Final residual = 8.17076e-15, No Iterations 1
DILUPBiCG:  Solving for Uy, Initial residual = 1.24485e-12, Final residual = 2.86319e-15, No Iterations 2
DICPCG:  Solving for p_rgh, Initial residual = 1.54811e-12, Final residual = 1.48037e-14, No Iterations 10
time step continuity errors : sum local = 6.38546e-14, global = 2.79521e-16, cumulative = 1.24866e-15
DILUPBiCG:  Solving for epsilon, Initial residual = 6.89947e-13, Final residual = 2.75711e-16, No Iterations 2
DILUPBiCG:  Solving for k, Initial residual = 1.39198e-12, Final residual = 2.56485e-15, No Iterations 2
DICPCG:  Solving for G, Initial residual = 1.39064e-12, Final residual = 9.71224e-14, No Iterations 10
Before T+T solve
BiCG:  Solving for T+T, Initial residual = 2.65341e-13, Final residual = 2.21009e-14, No Iterations 2
Tres = -9.02001e-11
TsRes = -6.41091e-12
ExecutionTime = 2.29 s



Wall heat fluxes [W]
movingWall -0.0422668 -1.34745e-15 0.0422668 4.46379e-13
left 0.725903 9.85082e-15 1.50865 2.23456
right -0.501397 -1.09403e-15 -1.73316 -2.23456
bottom -0.18224 0 0.18224 3.25351e-13
frontAndBack 0 0 0 0
sum -9.02077e-11 7.40934e-15 -1.15463e-14 -9.02118e-11


Wall heat fluxes [W]
topAndBottom 0 0 0 0
left 2.23456 0 0 2.23456
right -2.23456 0 0 -2.23456
frontAndBack 0 0 0 0
sum -6.41087e-12 0 0 -6.41087e-12

Time = 994

DILUPBiCG:  Solving for Ux, Initial residual = 8.59758e-13, Final residual = 8.11027e-15, No Iterations 1
DILUPBiCG:  Solving for Uy, Initial residual = 1.36185e-12, Final residual = 2.18397e-16, No Iterations 2
DICPCG:  Solving for p_rgh, Initial residual = 1.52097e-12, Final residual = 1.13181e-14, No Iterations 5
time step continuity errors : sum local = 6.87033e-14, global = -1.53856e-17, cumulative = 1.23328e-15
DILUPBiCG:  Solving for epsilon, Initial residual = 6.70711e-13, Final residual = 2.68544e-16, No Iterations 2
DILUPBiCG:  Solving for k, Initial residual = 1.35838e-12, Final residual = 2.51192e-15, No Iterations 2
DICPCG:  Solving for G, Initial residual = 1.63463e-12, Final residual = 1.10461e-13, No Iterations 11
Before T+T solve
BiCG:  Solving for T+T, Initial residual = 2.64375e-13, Final residual = 2.63947e-14, No Iterations 2
Tres = -8.81856e-11
TsRes = -7.13441e-12
ExecutionTime = 2.29 s



Wall heat fluxes [W]
movingWall -0.0422668 1.62658e-15 0.0422668 6.72774e-13
left 0.725903 2.35865e-15 1.50865 2.23456
right -0.501397 -6.34532e-15 -1.73316 -2.23456
bottom -0.18224 0 0.18224 5.70627e-13
frontAndBack 0 0 0 0
sum -8.81829e-11 -2.3601e-15 2.65982e-13 -8.79193e-11


Wall heat fluxes [W]
topAndBottom 0 0 0 0
left 2.23456 0 0 2.23456
right -2.23456 0 0 -2.23456
frontAndBack 0 0 0 0
sum -7.13474e-12 0 0 -7.13474e-12

Time = 995

DILUPBiCG:  Solving for Ux, Initial residual = 9.18776e-13, Final residual = 7.86497e-15, No Iterations 1
DILUPBiCG:  Solving for Uy, Initial residual = 1.06314e-12, Final residual = 3.2019e-16, No Iterations 2
DICPCG:  Solving for p_rgh, Initial residual = 1.4975e-12, Final residual = 1.48441e-14, No Iterations 10
time step continuity errors : sum local = 6.31399e-14, global = 3.83249e-16, cumulative = 1.61653e-15
DILUPBiCG:  Solving for epsilon, Initial residual = 6.57606e-13, Final residual = 2.63171e-16, No Iterations 2
DILUPBiCG:  Solving for k, Initial residual = 1.32413e-12, Final residual = 2.44152e-15, No Iterations 2
DICPCG:  Solving for G, Initial residual = 1.60067e-12, Final residual = 6.46837e-14, No Iterations 10
Before T+T solve
BiCG:  Solving for T+T, Initial residual = 2.62381e-13, Final residual = 9.04872e-15, No Iterations 4
Tres = -8.61511e-11
TsRes = -5.83146e-12
ExecutionTime = 2.29 s



Wall heat fluxes [W]
movingWall -0.0422668 1.41279e-15 0.0422668 5.48048e-13
left 0.725903 9.57334e-15 1.50865 2.23456
right -0.501397 3.9392e-15 -1.73316 -2.23456
bottom -0.18224 0 0.18224 4.22135e-13
frontAndBack 0 0 0 0
sum -8.6165e-11 1.49253e-14 4.89303e-13 -8.56607e-11


Wall heat fluxes [W]
topAndBottom 0 0 0 0
left 2.23456 0 0 2.23456
right -2.23456 0 0 -2.23456
frontAndBack 0 0 0 0
sum -5.83089e-12 0 0 -5.83089e-12

Time = 996

DILUPBiCG:  Solving for Ux, Initial residual = 8.90815e-13, Final residual = 7.56921e-15, No Iterations 1
DILUPBiCG:  Solving for Uy, Initial residual = 1.16558e-12, Final residual = 5.83716e-16, No Iterations 2
DICPCG:  Solving for p_rgh, Initial residual = 1.43211e-12, Final residual = 1.10557e-14, No Iterations 5
time step continuity errors : sum local = 6.54516e-14, global = 2.32669e-16, cumulative = 1.8492e-15
DILUPBiCG:  Solving for epsilon, Initial residual = 6.41229e-13, Final residual = 2.56496e-16, No Iterations 2
DILUPBiCG:  Solving for k, Initial residual = 1.29489e-12, Final residual = 2.39502e-15, No Iterations 2
DICPCG:  Solving for G, Initial residual = 1.84971e-12, Final residual = 9.32912e-14, No Iterations 10
Before T+T solve
BiCG:  Solving for T+T, Initial residual = 2.47018e-13, Final residual = 2.11423e-14, No Iterations 2
Tres = -8.39547e-11
TsRes = -6.14091e-12
ExecutionTime = 2.3 s



Wall heat fluxes [W]
movingWall -0.0422668 2.47913e-16 0.0422668 5.06983e-13
left 0.725903 5.41102e-15 1.50865 2.23456
right -0.501397 1.75066e-15 -1.73316 -2.23456
bottom -0.18224 0 0.18224 4.00985e-13
frontAndBack 0 0 0 0
sum -8.39633e-11 7.40959e-15 4.63546e-13 -8.34924e-11


Wall heat fluxes [W]
topAndBottom 0 0 0 0
left 2.23456 0 0 2.23456
right -2.23456 0 0 -2.23456
frontAndBack 0 0 0 0
sum -6.14131e-12 0 0 -6.14131e-12

Time = 997

DILUPBiCG:  Solving for Ux, Initial residual = 7.96276e-13, Final residual = 7.40662e-15, No Iterations 1
DILUPBiCG:  Solving for Uy, Initial residual = 1.17495e-12, Final residual = 5.7685e-16, No Iterations 2
DICPCG:  Solving for p_rgh, Initial residual = 1.40465e-12, Final residual = 6.55521e-15, No Iterations 11
time step continuity errors : sum local = 2.78634e-14, global = -9.34714e-17, cumulative = 1.75572e-15
DILUPBiCG:  Solving for epsilon, Initial residual = 6.26389e-13, Final residual = 2.49598e-16, No Iterations 2
DILUPBiCG:  Solving for k, Initial residual = 1.26571e-12, Final residual = 2.32787e-15, No Iterations 2
DICPCG:  Solving for G, Initial residual = 1.84678e-12, Final residual = 1.7646e-13, No Iterations 10
Before T+T solve
BiCG:  Solving for T+T, Initial residual = 2.46363e-13, Final residual = 8.09144e-15, No Iterations 4
Tres = -8.20847e-11
TsRes = -5.00183e-12
ExecutionTime = 2.3 s



Wall heat fluxes [W]
movingWall -0.0422668 -1.26681e-15 0.0422668 5.47652e-13
left 0.725903 1.94242e-15 1.50865 2.23456
right -0.501397 -6.12679e-15 -1.73316 -2.23456
bottom -0.18224 0 0.18224 4.3951e-13
frontAndBack 0 0 0 0
sum -8.20817e-11 -5.45118e-15 1.10606e-13 -8.19766e-11


Wall heat fluxes [W]
topAndBottom 0 0 0 0
left 2.23456 0 0 2.23456
right -2.23456 0 0 -2.23456
frontAndBack 0 0 0 0
sum -5.00178e-12 0 0 -5.00178e-12

Time = 998

DILUPBiCG:  Solving for Ux, Initial residual = 8.54951e-13, Final residual = 7.21842e-15, No Iterations 1
DILUPBiCG:  Solving for Uy, Initial residual = 1.07174e-12, Final residual = 2.93484e-15, No Iterations 2
DICPCG:  Solving for p_rgh, Initial residual = 1.36338e-12, Final residual = 1.06719e-14, No Iterations 5
time step continuity errors : sum local = 6.36903e-14, global = -1.03232e-17, cumulative = 1.7454e-15
DILUPBiCG:  Solving for epsilon, Initial residual = 6.1045e-13, Final residual = 2.43709e-16, No Iterations 2
DILUPBiCG:  Solving for k, Initial residual = 1.23324e-12, Final residual = 2.27703e-15, No Iterations 2
DICPCG:  Solving for G, Initial residual = 1.79874e-12, Final residual = 5.40281e-14, No Iterations 10
Before T+T solve
BiCG:  Solving for T+T, Initial residual = 2.33847e-13, Final residual = 2.03189e-14, No Iterations 2
Tres = -8.0124e-11
TsRes = -5.79394e-12
ExecutionTime = 2.3 s



Wall heat fluxes [W]
movingWall -0.0422668 1.85238e-15 0.0422668 5.55493e-13
left 0.725903 -5.54976e-16 1.50865 2.23456
right -0.501397 -2.84511e-15 -1.73316 -2.23456
bottom -0.18224 0 0.18224 4.60104e-13
frontAndBack 0 0 0 0
sum -8.01203e-11 -1.5477e-15 7.07545e-13 -7.94143e-11


Wall heat fluxes [W]
topAndBottom 0 0 0 0
left 2.23456 0 0 2.23456
right -2.23456 0 0 -2.23456
frontAndBack 0 0 0 0
sum -5.79359e-12 0 0 -5.79359e-12

Time = 999

DILUPBiCG:  Solving for Ux, Initial residual = 7.70293e-13, Final residual = 7.01311e-15, No Iterations 1
DILUPBiCG:  Solving for Uy, Initial residual = 1.0335e-12, Final residual = 1.27368e-15, No Iterations 2
DICPCG:  Solving for p_rgh, Initial residual = 1.33652e-12, Final residual = 5.76772e-15, No Iterations 11
time step continuity errors : sum local = 2.4583e-14, global = -1.26029e-16, cumulative = 1.61937e-15
DILUPBiCG:  Solving for epsilon, Initial residual = 5.96376e-13, Final residual = 2.37641e-16, No Iterations 2
DILUPBiCG:  Solving for k, Initial residual = 1.20379e-12, Final residual = 2.21173e-15, No Iterations 2
DICPCG:  Solving for G, Initial residual = 1.58624e-12, Final residual = 1.06358e-13, No Iterations 10
Before T+T solve
BiCG:  Solving for T+T, Initial residual = 2.3492e-13, Final residual = 7.96047e-15, No Iterations 4
Tres = -7.84093e-11
TsRes = -4.97545e-12
ExecutionTime = 2.3 s



Wall heat fluxes [W]
movingWall -0.0422668 -1.15833e-15 0.0422668 5.69808e-13
left 0.725903 5.54976e-16 1.50865 2.23456
right -0.501397 -5.03368e-15 -1.73316 -2.23456
bottom -0.18224 0 0.18224 4.68042e-13
frontAndBack 0 0 0 0
sum -7.84045e-11 -5.63703e-15 8.28448e-13 -7.75817e-11


Wall heat fluxes [W]
topAndBottom 0 0 0 0
left 2.23456 0 0 2.23456
right -2.23456 0 0 -2.23456
frontAndBack 0 0 0 0
sum -4.97513e-12 0 0 -4.97513e-12

Time = 1000

DILUPBiCG:  Solving for Ux, Initial residual = 8.14888e-13, Final residual = 6.87987e-15, No Iterations 1
DILUPBiCG:  Solving for Uy, Initial residual = 9.73604e-13, Final residual = 7.47268e-16, No Iterations 2
DICPCG:  Solving for p_rgh, Initial residual = 1.2894e-12, Final residual = 1.01493e-14, No Iterations 5
time step continuity errors : sum local = 5.91285e-14, global = 1.42143e-16, cumulative = 1.76151e-15
DILUPBiCG:  Solving for epsilon, Initial residual = 5.8094e-13, Final residual = 2.32107e-16, No Iterations 2
DILUPBiCG:  Solving for k, Initial residual = 1.17306e-12, Final residual = 2.16437e-15, No Iterations 2
DICPCG:  Solving for G, Initial residual = 1.5575e-12, Final residual = 7.909e-14, No Iterations 10
Before T+T solve
BiCG:  Solving for T+T, Initial residual = 2.23383e-13, Final residual = 2.21169e-14, No Iterations 1
Tres = -7.63481e-11
TsRes = -6.00347e-12
ExecutionTime = 2.31 s



Wall heat fluxes [W]
movingWall -0.0422668 -1.5927e-15 0.0422668 4.69534e-13
left 0.725903 2.08116e-15 1.50865 2.23456
right -0.501397 4.37724e-15 -1.73316 -2.23456
bottom -0.18224 0 0.18224 3.71481e-13
frontAndBack 0 0 0 0
sum -7.63525e-11 4.8657e-15 9.58178e-13 -7.53895e-11


Wall heat fluxes [W]
topAndBottom 0 0 0 0
left 2.23456 0 0 2.23456
right -2.23456 0 0 -2.23456
frontAndBack 0 0 0 0
sum -6.00364e-12 0 0 -6.00364e-12

End

