/*---------------------------------------------------------------------------*\
| =========                 |                                                 |
| \\      /  F ield         | OpenFOAM Extend Project: Open source CFD        |
|  \\    /   O peration     | Version:  1.6-ext                               |
|   \\  /    A nd           | Web:      www.extend-project.de                 |
|    \\/     M anipulation  |                                                 |
\*---------------------------------------------------------------------------*/
Build  : 1.6-ext-8673d8aecf4d
Exec   : chipAirCoolingSimpleFoam
Date   : Nov 01 2011
Time   : 21:09:35
Host   : diokletian
PID    : 17490
Case   : /home/henrus/projects/ChipAirCooling/run/tutorial1/conjugateContactCavity
nProcs : 1
SigFpe : Enabling floating point exception trapping (FOAM_SIGFPE).

// * * * * * * * * * * * * * * * * * * * * * * * * * * * * * * * * * * * * * //
Create time

Create mesh for time = 0


    From function void polyMesh::initMesh()
    in file meshes/polyMesh/polyMeshInitMesh.C at line 82
    Truncating neighbour list at 180 for backward compatibility

Reading g
Reading transportProperties

Calculating field g.h

Reading field p_rgh

Reading field U

Reading field T

Reading/calculating face flux field phi

Selecting incompressible transport model Newtonian
Selecting RAS turbulence model kEpsilon
kEpsilonCoeffs
{
    Cmu             0.09;
    C1              1.44;
    C2              1.92;
    alphaEps        0.76923;
    sigmaEps        1.3;
}

Reading field kappaEff

Creating radiation model

Selecting radiationModel P1
Selecting absorptionEmissionModel constantAbsorptionEmission
Selecting scatterModel constantScatter
Reading field Tsolid

Reading solid thermal properties
Selecting thermal model multiMaterialZones
Selecting thermal model constant
Selecting thermal model constant
Selecting thermal gap model constant
Reading solid diffusivity k


Starting time loop

--> FOAM Warning : 
    From function dlLibraryTable::open(const dictionary& dict, const word& libsEntry, const TablePtr tablePtr)
    in file lnInclude/dlLibraryTableTemplates.C at line 68
    library "libairbusMaterialModels.so" did not introduce any new entries

Time = 1

DILUPBiCG:  Solving for Ux, Initial residual = 1, Final residual = 9.72759e-05, No Iterations 2
DILUPBiCG:  Solving for Uy, Initial residual = 1, Final residual = 0.000174731, No Iterations 2
DICPCG:  Solving for p_rgh, Initial residual = 1, Final residual = 0.00985949, No Iterations 5
time step continuity errors : sum local = 0.00481111, global = 2.0845e-18, cumulative = 2.0845e-18
DILUPBiCG:  Solving for epsilon, Initial residual = 0.0778063, Final residual = 0.000142604, No Iterations 2
DILUPBiCG:  Solving for k, Initial residual = 1, Final residual = 0.00249972, No Iterations 2
DICPCG:  Solving for G, Initial residual = 1, Final residual = 0.0255384, No Iterations 11
BiCG:  Solving for T+T, Initial residual = 0.308408, Final residual = 0.028111, No Iterations 3
ExecutionTime = 0.01 s



Wall heat fluxes [W]
movingWall 0.00240451 0 8.04921e-07 0.00240531
left 6.07159e-07 0 -1.20093e-06 -5.93773e-07
right -0.547753 0 8.04921e-07 -0.547752
bottom 0.00499542 0 -1.20093e-06 0.00499422
frontAndBack 0 0 0 0
sum -0.540353 0 -7.92022e-07 -0.540353


Wall heat fluxes [W]
topAndBottom 0 0 0 0
left -1.18455 0 0 -1.18455
right -18.4198 0 0 -18.4198
frontAndBack 0 0 0 0
sum -19.6044 0 0 -19.6044

Time = 2

DILUPBiCG:  Solving for Ux, Initial residual = 0.887661, Final residual = 9.21445e-05, No Iterations 2
DILUPBiCG:  Solving for Uy, Initial residual = 0.823448, Final residual = 0.00720968, No Iterations 1
DICPCG:  Solving for p_rgh, Initial residual = 0.891207, Final residual = 0.00653415, No Iterations 6
time step continuity errors : sum local = 0.0218513, global = 1.81847e-16, cumulative = 1.83932e-16
DILUPBiCG:  Solving for epsilon, Initial residual = 0.0241553, Final residual = 3.05246e-05, No Iterations 2
DILUPBiCG:  Solving for k, Initial residual = 0.650788, Final residual = 0.000809506, No Iterations 2
DICPCG:  Solving for G, Initial residual = 0.995185, Final residual = 0.0327224, No Iterations 13
BiCG:  Solving for T+T, Initial residual = 0.0324685, Final residual = 0.00240167, No Iterations 5
ExecutionTime = 0.01 s



Wall heat fluxes [W]
movingWall -0.271281 7.54179e-17 0.381511 0.11023
left 0.0100477 4.63108e-22 0.382643 0.39269
right -0.499693 8.30039e-15 -1.14018 -1.63987
bottom -0.247725 0 0.376032 0.128307
frontAndBack 0 0 0 0
sum -1.00865 8.37581e-15 3.82822e-06 -1.00865


Wall heat fluxes [W]
topAndBottom 0 0 0 0
left 29.1639 0 0 29.1639
right -7.22235 0 0 -7.22235
frontAndBack 0 0 0 0
sum 21.9415 0 0 21.9415

Time = 3

DILUPBiCG:  Solving for Ux, Initial residual = 0.348029, Final residual = 2.41994e-05, No Iterations 2
DILUPBiCG:  Solving for Uy, Initial residual = 0.558056, Final residual = 0.00458198, No Iterations 1
DICPCG:  Solving for p_rgh, Initial residual = 0.473058, Final residual = 0.00233811, No Iterations 6
time step continuity errors : sum local = 0.00774392, global = 1.58819e-16, cumulative = 3.42751e-16
DILUPBiCG:  Solving for epsilon, Initial residual = 0.0758086, Final residual = 4.26258e-05, No Iterations 2
DILUPBiCG:  Solving for k, Initial residual = 0.217867, Final residual = 0.000285972, No Iterations 2
DICPCG:  Solving for G, Initial residual = 0.151087, Final residual = 0.005878, No Iterations 11
BiCG:  Solving for T+T, Initial residual = 0.00817776, Final residual = 0.000600532, No Iterations 5
ExecutionTime = 0.02 s



Wall heat fluxes [W]
movingWall -0.256371 -5.9118e-16 0.265595 0.00922431
left 0.0142471 -7.80774e-17 0.517214 0.531461
right -0.543881 7.82584e-15 -0.996284 -1.54017
bottom -0.208747 0 0.213467 0.00472015
frontAndBack 0 0 0 0
sum -0.994752 7.15658e-15 -7.63062e-06 -0.99476


Wall heat fluxes [W]
topAndBottom 0 0 0 0
left 25.9462 0 0 25.9462
right -4.99516 0 0 -4.99516
frontAndBack 0 0 0 0
sum 20.951 0 0 20.951

Time = 4

DILUPBiCG:  Solving for Ux, Initial residual = 0.162137, Final residual = 1.29181e-05, No Iterations 2
DILUPBiCG:  Solving for Uy, Initial residual = 0.296213, Final residual = 0.00259065, No Iterations 1
DICPCG:  Solving for p_rgh, Initial residual = 0.168973, Final residual = 0.0015846, No Iterations 6
time step continuity errors : sum local = 0.00631645, global = 2.00178e-16, cumulative = 5.42928e-16
DILUPBiCG:  Solving for epsilon, Initial residual = 0.117254, Final residual = 9.77185e-05, No Iterations 2
DILUPBiCG:  Solving for k, Initial residual = 0.130886, Final residual = 0.000168885, No Iterations 2
DICPCG:  Solving for G, Initial residual = 0.0908701, Final residual = 0.00296418, No Iterations 13
BiCG:  Solving for T+T, Initial residual = 0.00506838, Final residual = 0.00023961, No Iterations 5
ExecutionTime = 0.02 s



Wall heat fluxes [W]
movingWall -0.302781 1.85334e-15 0.337458 0.0346764
left 0.0191508 9.51155e-17 0.606821 0.625972
right -0.586013 7.26067e-15 -1.23874 -1.82475
bottom -0.257585 0 0.294463 0.0368778
frontAndBack 0 0 0 0
sum -1.12723 9.20913e-15 3.38856e-07 -1.12723


Wall heat fluxes [W]
topAndBottom 0 0 0 0
left 19.0643 0 0 19.0643
right -4.05131 0 0 -4.05131
frontAndBack 0 0 0 0
sum 15.013 0 0 15.013

Time = 5

DILUPBiCG:  Solving for Ux, Initial residual = 0.134145, Final residual = 0.00128687, No Iterations 1
DILUPBiCG:  Solving for Uy, Initial residual = 0.198164, Final residual = 0.00164056, No Iterations 1
DICPCG:  Solving for p_rgh, Initial residual = 0.114962, Final residual = 0.00095703, No Iterations 11
time step continuity errors : sum local = 0.00273575, global = 6.87553e-17, cumulative = 6.11684e-16
DILUPBiCG:  Solving for epsilon, Initial residual = 0.136815, Final residual = 0.000127067, No Iterations 2
DILUPBiCG:  Solving for k, Initial residual = 0.0982509, Final residual = 0.00016649, No Iterations 2
DICPCG:  Solving for G, Initial residual = 0.0952013, Final residual = 0.00275846, No Iterations 13
BiCG:  Solving for T+T, Initial residual = 0.003853, Final residual = 0.000241453, No Iterations 4
ExecutionTime = 0.02 s



Wall heat fluxes [W]
movingWall -0.347783 -1.27378e-15 0.383239 0.0354555
left 0.024384 3.38188e-16 0.723056 0.74744
right -0.612577 4.1183e-15 -1.44197 -2.05454
bottom -0.302878 0 0.335673 0.0327946
frontAndBack 0 0 0 0
sum -1.23885 3.18271e-15 -2.97283e-07 -1.23885


Wall heat fluxes [W]
topAndBottom 0 0 0 0
left 14.0191 0 0 14.0191
right -3.53956 0 0 -3.53956
frontAndBack 0 0 0 0
sum 10.4795 0 0 10.4795

Time = 6

DILUPBiCG:  Solving for Ux, Initial residual = 0.100238, Final residual = 0.000811232, No Iterations 1
DILUPBiCG:  Solving for Uy, Initial residual = 0.129473, Final residual = 0.000993563, No Iterations 1
DICPCG:  Solving for p_rgh, Initial residual = 0.0880032, Final residual = 0.000513233, No Iterations 11
time step continuity errors : sum local = 0.00144924, global = 2.5497e-16, cumulative = 8.66654e-16
DILUPBiCG:  Solving for epsilon, Initial residual = 0.131447, Final residual = 0.000133818, No Iterations 2
DILUPBiCG:  Solving for k, Initial residual = 0.0815799, Final residual = 0.000285577, No Iterations 2
DICPCG:  Solving for G, Initial residual = 0.0686156, Final residual = 0.00195039, No Iterations 13
BiCG:  Solving for T+T, Initial residual = 0.00320445, Final residual = 0.000303116, No Iterations 3
ExecutionTime = 0.02 s



Wall heat fluxes [W]
movingWall -0.378401 1.27867e-15 0.406474 0.0280729
left 0.030301 1.49583e-16 0.818383 0.848684
right -0.627762 1.04443e-14 -1.58943 -2.21719
bottom -0.336925 0 0.364574 0.0276497
frontAndBack 0 0 0 0
sum -1.31279 1.18726e-14 -5.73716e-07 -1.31279


Wall heat fluxes [W]
topAndBottom 0 0 0 0
left 10.6564 0 0 10.6564
right -3.2636 0 0 -3.2636
frontAndBack 0 0 0 0
sum 7.3928 0 0 7.3928

Time = 7

DILUPBiCG:  Solving for Ux, Initial residual = 0.075062, Final residual = 0.000592471, No Iterations 1
DILUPBiCG:  Solving for Uy, Initial residual = 0.0912513, Final residual = 0.000750956, No Iterations 1
DICPCG:  Solving for p_rgh, Initial residual = 0.0643816, Final residual = 0.000567461, No Iterations 10
time step continuity errors : sum local = 0.00139098, global = 1.6623e-16, cumulative = 1.03288e-15
DILUPBiCG:  Solving for epsilon, Initial residual = 0.109778, Final residual = 0.000122607, No Iterations 2
DILUPBiCG:  Solving for k, Initial residual = 0.0714715, Final residual = 9.52716e-05, No Iterations 2
DICPCG:  Solving for G, Initial residual = 0.0477732, Final residual = 0.00134452, No Iterations 13
BiCG:  Solving for T+T, Initial residual = 0.00285526, Final residual = 0.000221037, No Iterations 3
ExecutionTime = 0.02 s



Wall heat fluxes [W]
movingWall -0.400598 1.34306e-15 0.422235 0.0216368
left 0.0360327 -1.3224e-16 0.890836 0.926869
right -0.635535 6.75251e-15 -1.69433 -2.32987
bottom -0.357993 0 0.381259 0.0232654
frontAndBack 0 0 0 0
sum -1.35809 7.96333e-15 -5.61815e-07 -1.35809


Wall heat fluxes [W]
topAndBottom 0 0 0 0
left 8.0353 0 0 8.0353
right -3.04007 0 0 -3.04007
frontAndBack 0 0 0 0
sum 4.99523 0 0 4.99523

Time = 8

DILUPBiCG:  Solving for Ux, Initial residual = 0.0610721, Final residual = 0.000477715, No Iterations 1
DILUPBiCG:  Solving for Uy, Initial residual = 0.0733841, Final residual = 0.000589368, No Iterations 1
DICPCG:  Solving for p_rgh, Initial residual = 0.0607223, Final residual = 0.000521, No Iterations 10
time step continuity errors : sum local = 0.00126737, global = -3.7554e-17, cumulative = 9.9533e-16
DILUPBiCG:  Solving for epsilon, Initial residual = 0.0866582, Final residual = 0.000473527, No Iterations 2
DILUPBiCG:  Solving for k, Initial residual = 0.0660437, Final residual = 0.00010547, No Iterations 2
DICPCG:  Solving for G, Initial residual = 0.0341356, Final residual = 0.000939045, No Iterations 13
BiCG:  Solving for T+T, Initial residual = 0.00257806, Final residual = 0.000217301, No Iterations 3
ExecutionTime = 0.03 s



Wall heat fluxes [W]
movingWall -0.415894 -2.64436e-15 0.433718 0.0178242
left 0.0403638 -5.2029e-16 0.945809 0.986172
right -0.637571 2.54786e-15 -1.76897 -2.40655
bottom -0.369704 0 0.389447 0.0197431
frontAndBack 0 0 0 0
sum -1.38281 -6.16789e-16 -4.61063e-07 -1.38281


Wall heat fluxes [W]
topAndBottom 0 0 0 0
left 6.47314 0 0 6.47314
right -2.90367 0 0 -2.90367
frontAndBack 0 0 0 0
sum 3.56947 0 0 3.56947

Time = 9

DILUPBiCG:  Solving for Ux, Initial residual = 0.054297, Final residual = 0.000403255, No Iterations 1
DILUPBiCG:  Solving for Uy, Initial residual = 0.062081, Final residual = 0.000488878, No Iterations 1
DICPCG:  Solving for p_rgh, Initial residual = 0.0652164, Final residual = 0.000553998, No Iterations 10
time step continuity errors : sum local = 0.00132478, global = -2.39552e-17, cumulative = 9.71375e-16
DILUPBiCG:  Solving for epsilon, Initial residual = 0.0689351, Final residual = 9.57761e-05, No Iterations 2
DILUPBiCG:  Solving for k, Initial residual = 0.0622398, Final residual = 0.000101675, No Iterations 2
DICPCG:  Solving for G, Initial residual = 0.0246143, Final residual = 0.000658034, No Iterations 13
BiCG:  Solving for T+T, Initial residual = 0.00243269, Final residual = 0.000190985, No Iterations 3
ExecutionTime = 0.03 s



Wall heat fluxes [W]
movingWall -0.424569 -5.24162e-15 0.439244 0.0146752
left 0.0433919 1.95109e-16 0.98709 1.03048
right -0.636822 4.26818e-15 -1.81743 -2.45425
bottom -0.374969 0 0.391094 0.0161258
frontAndBack 0 0 0 0
sum -1.39297 -7.78336e-16 -3.74884e-07 -1.39297


Wall heat fluxes [W]
topAndBottom 0 0 0 0
left 5.27823 0 0 5.27823
right -2.79891 0 0 -2.79891
frontAndBack 0 0 0 0
sum 2.47932 0 0 2.47932

Time = 10

DILUPBiCG:  Solving for Ux, Initial residual = 0.0501015, Final residual = 0.000364705, No Iterations 1
DILUPBiCG:  Solving for Uy, Initial residual = 0.0582779, Final residual = 0.000418123, No Iterations 1
DICPCG:  Solving for p_rgh, Initial residual = 0.0679049, Final residual = 0.000593357, No Iterations 10
time step continuity errors : sum local = 0.00138444, global = 5.57189e-17, cumulative = 1.02709e-15
DILUPBiCG:  Solving for epsilon, Initial residual = 0.0557792, Final residual = 5.26014e-05, No Iterations 2
DILUPBiCG:  Solving for k, Initial residual = 0.0590989, Final residual = 8.82521e-05, No Iterations 2
DICPCG:  Solving for G, Initial residual = 0.0183871, Final residual = 0.000489011, No Iterations 13
BiCG:  Solving for T+T, Initial residual = 0.00232605, Final residual = 0.000179383, No Iterations 3
ExecutionTime = 0.03 s



Wall heat fluxes [W]
movingWall -0.429218 -1.27121e-15 0.441559 0.0123412
left 0.0457578 2.16787e-16 1.01879 1.06455
right -0.634198 2.99632e-15 -1.85084 -2.48504
bottom -0.377432 0 0.390491 0.0130589
frontAndBack 0 0 0 0
sum -1.39509 1.9419e-15 -3.16078e-07 -1.39509


Wall heat fluxes [W]
topAndBottom 0 0 0 0
left 4.53772 0 0 4.53772
right -2.72911 0 0 -2.72911
frontAndBack 0 0 0 0
sum 1.80861 0 0 1.80861

Time = 11

DILUPBiCG:  Solving for Ux, Initial residual = 0.0470427, Final residual = 0.000350948, No Iterations 1
DILUPBiCG:  Solving for Uy, Initial residual = 0.0571687, Final residual = 0.000387337, No Iterations 1
DICPCG:  Solving for p_rgh, Initial residual = 0.0703859, Final residual = 0.000696619, No Iterations 10
time step continuity errors : sum local = 0.0015739, global = -5.16558e-16, cumulative = 5.10536e-16
DILUPBiCG:  Solving for epsilon, Initial residual = 0.0460722, Final residual = 4.66513e-05, No Iterations 2
DILUPBiCG:  Solving for k, Initial residual = 0.056335, Final residual = 7.40856e-05, No Iterations 2
DICPCG:  Solving for G, Initial residual = 0.0137531, Final residual = 0.000363573, No Iterations 13
BiCG:  Solving for T+T, Initial residual = 0.00226787, Final residual = 0.000161125, No Iterations 3
ExecutionTime = 0.04 s



Wall heat fluxes [W]
movingWall -0.430444 -1.07801e-16 0.441011 0.0105669
left 0.0477219 2.25459e-16 1.04294 1.09066
right -0.630917 -2.57523e-14 -1.87245 -2.50337
bottom -0.378043 0 0.388506 0.0104631
frontAndBack 0 0 0 0
sum -1.39168 -2.56347e-14 -2.60309e-07 -1.39168


Wall heat fluxes [W]
topAndBottom 0 0 0 0
left 3.96972 0 0 3.96972
right -2.67672 0 0 -2.67672
frontAndBack 0 0 0 0
sum 1.29299 0 0 1.29299

Time = 12

DILUPBiCG:  Solving for Ux, Initial residual = 0.0441446, Final residual = 0.00034347, No Iterations 1
DILUPBiCG:  Solving for Uy, Initial residual = 0.0557875, Final residual = 0.000366198, No Iterations 1
DICPCG:  Solving for p_rgh, Initial residual = 0.0700957, Final residual = 0.000489713, No Iterations 11
time step continuity errors : sum local = 0.00110571, global = -8.44386e-17, cumulative = 4.26097e-16
DILUPBiCG:  Solving for epsilon, Initial residual = 0.0385972, Final residual = 4.0239e-05, No Iterations 2
DILUPBiCG:  Solving for k, Initial residual = 0.0539677, Final residual = 6.53017e-05, No Iterations 2
DICPCG:  Solving for G, Initial residual = 0.0106298, Final residual = 0.00028103, No Iterations 13
BiCG:  Solving for T+T, Initial residual = 0.00221538, Final residual = 0.000144789, No Iterations 3
ExecutionTime = 0.04 s



Wall heat fluxes [W]
movingWall -0.429403 -8.48517e-17 0.43879 0.0093869
left 0.0493662 -3.29517e-16 1.06184 1.1112
right -0.627334 -4.29869e-15 -1.88713 -2.51446
bottom -0.377694 0 0.386499 0.00880443
frontAndBack 0 0 0 0
sum -1.38506 -4.71306e-15 -1.9895e-07 -1.38507


Wall heat fluxes [W]
topAndBottom 0 0 0 0
left 3.6026 0 0 3.6026
right -2.63978 0 0 -2.63978
frontAndBack 0 0 0 0
sum 0.962823 0 0 0.962823

Time = 13

DILUPBiCG:  Solving for Ux, Initial residual = 0.0417219, Final residual = 0.00036723, No Iterations 1
DILUPBiCG:  Solving for Uy, Initial residual = 0.0534732, Final residual = 0.000353501, No Iterations 1
DICPCG:  Solving for p_rgh, Initial residual = 0.067898, Final residual = 0.000670539, No Iterations 10
time step continuity errors : sum local = 0.00145773, global = 4.63221e-17, cumulative = 4.72419e-16
DILUPBiCG:  Solving for epsilon, Initial residual = 0.0332177, Final residual = 3.33154e-05, No Iterations 2
DILUPBiCG:  Solving for k, Initial residual = 0.0522238, Final residual = 6.13585e-05, No Iterations 2
DICPCG:  Solving for G, Initial residual = 0.00842883, Final residual = 0.000219972, No Iterations 13
BiCG:  Solving for T+T, Initial residual = 0.00218502, Final residual = 0.000199746, No Iterations 1
ExecutionTime = 0.04 s



Wall heat fluxes [W]
movingWall -0.426749 -2.60507e-15 0.435152 0.00840319
left 0.0506696 5.2029e-17 1.07696 1.12763
right -0.623884 5.16724e-15 -1.89614 -2.52002
bottom -0.376701 0 0.384032 0.00733112
frontAndBack 0 0 0 0
sum -1.37666 2.61419e-15 -1.35061e-07 -1.37666


Wall heat fluxes [W]
topAndBottom 0 0 0 0
left 2.58114 0 0 2.58114
right -2.63685 0 0 -2.63685
frontAndBack 0 0 0 0
sum -0.0557126 0 0 -0.0557126

Time = 14

DILUPBiCG:  Solving for Ux, Initial residual = 0.0397075, Final residual = 8.0833e-06, No Iterations 2
DILUPBiCG:  Solving for Uy, Initial residual = 0.0514017, Final residual = 0.000356918, No Iterations 1
DICPCG:  Solving for p_rgh, Initial residual = 0.0676514, Final residual = 0.000647874, No Iterations 10
time step continuity errors : sum local = 0.00137372, global = -2.15191e-16, cumulative = 2.57228e-16
DILUPBiCG:  Solving for epsilon, Initial residual = 0.0294103, Final residual = 2.80128e-05, No Iterations 2
DILUPBiCG:  Solving for k, Initial residual = 0.0511095, Final residual = 6.11612e-05, No Iterations 2
DICPCG:  Solving for G, Initial residual = 0.0068466, Final residual = 0.000178726, No Iterations 13
BiCG:  Solving for T+T, Initial residual = 0.00215063, Final residual = 0.000153528, No Iterations 3
ExecutionTime = 0.04 s



Wall heat fluxes [W]
movingWall -0.422923 1.13094e-16 0.430725 0.00780226
left 0.0522069 1.7343e-17 1.08931 1.14152
right -0.618543 -1.16253e-14 -1.90179 -2.52034
bottom -0.375607 0 0.381754 0.00614633
frontAndBack 0 0 0 0
sum -1.36487 -1.14948e-14 -9.25093e-08 -1.36487


Wall heat fluxes [W]
topAndBottom 0 0 0 0
left 3.44724 0 0 3.44724
right -2.61054 0 0 -2.61054
frontAndBack 0 0 0 0
sum 0.836708 0 0 0.836708

Time = 15

DILUPBiCG:  Solving for Ux, Initial residual = 0.0389233, Final residual = 8.49077e-06, No Iterations 2
DILUPBiCG:  Solving for Uy, Initial residual = 0.0499953, Final residual = 0.000352977, No Iterations 1
DICPCG:  Solving for p_rgh, Initial residual = 0.0695494, Final residual = 0.00060954, No Iterations 10
time step continuity errors : sum local = 0.00128999, global = -2.47492e-17, cumulative = 2.32479e-16
DILUPBiCG:  Solving for epsilon, Initial residual = 0.0272596, Final residual = 2.42372e-05, No Iterations 2
DILUPBiCG:  Solving for k, Initial residual = 0.0507161, Final residual = 6.31215e-05, No Iterations 2
DICPCG:  Solving for G, Initial residual = 0.0040097, Final residual = 0.000263193, No Iterations 11
BiCG:  Solving for T+T, Initial residual = 0.00220128, Final residual = 0.000175051, No Iterations 1
ExecutionTime = 0.04 s



Wall heat fluxes [W]
movingWall -0.416376 -1.39967e-15 0.422319 0.00594323
left 0.0536328 7.97778e-16 1.09652 1.15015
right -0.616665 -8.61205e-16 -1.89549 -2.51216
bottom -0.372756 0 0.376655 0.00389873
frontAndBack 0 0 0 0
sum -1.35216 -1.4631e-15 -2.86439e-07 -1.35216


Wall heat fluxes [W]
topAndBottom 0 0 0 0
left 2.54972 0 0 2.54972
right -2.60833 0 0 -2.60833
frontAndBack 0 0 0 0
sum -0.0586058 0 0 -0.0586058

Time = 16

DILUPBiCG:  Solving for Ux, Initial residual = 0.034387, Final residual = 5.42791e-06, No Iterations 2
DILUPBiCG:  Solving for Uy, Initial residual = 0.0500872, Final residual = 0.000358156, No Iterations 1
DICPCG:  Solving for p_rgh, Initial residual = 0.0726574, Final residual = 0.000592115, No Iterations 10
time step continuity errors : sum local = 0.00126289, global = 4.18223e-17, cumulative = 2.74301e-16
DILUPBiCG:  Solving for epsilon, Initial residual = 0.025802, Final residual = 2.20447e-05, No Iterations 2
DILUPBiCG:  Solving for k, Initial residual = 0.0507496, Final residual = 6.64438e-05, No Iterations 2
DICPCG:  Solving for G, Initial residual = 0.00501769, Final residual = 0.000127401, No Iterations 13
BiCG:  Solving for T+T, Initial residual = 0.00215071, Final residual = 0.000187242, No Iterations 1
ExecutionTime = 0.05 s



Wall heat fluxes [W]
movingWall -0.411987 1.39357e-15 0.41929 0.00730295
left 0.0554956 5.89662e-16 1.10532 1.16082
right -0.612912 2.17572e-19 -1.90232 -2.51523
bottom -0.372464 0 0.377703 0.00523924
frontAndBack 0 0 0 0
sum -1.34187 1.98345e-15 -7.71206e-08 -1.34187


Wall heat fluxes [W]
topAndBottom 0 0 0 0
left 2.57928 0 0 2.57928
right -2.60599 0 0 -2.60599
frontAndBack 0 0 0 0
sum -0.0267187 0 0 -0.0267187

Time = 17

DILUPBiCG:  Solving for Ux, Initial residual = 0.0347605, Final residual = 5.18835e-06, No Iterations 2
DILUPBiCG:  Solving for Uy, Initial residual = 0.0469427, Final residual = 0.000356783, No Iterations 1
DICPCG:  Solving for p_rgh, Initial residual = 0.07361, Final residual = 0.000423326, No Iterations 10
time step continuity errors : sum local = 0.000940739, global = -7.78232e-17, cumulative = 1.96478e-16
DILUPBiCG:  Solving for epsilon, Initial residual = 0.0253167, Final residual = 2.14723e-05, No Iterations 2
DILUPBiCG:  Solving for k, Initial residual = 0.0510321, Final residual = 7.07687e-05, No Iterations 2
DICPCG:  Solving for G, Initial residual = 0.00353356, Final residual = 0.000175905, No Iterations 11
BiCG:  Solving for T+T, Initial residual = 0.00217075, Final residual = 0.00019583, No Iterations 1
ExecutionTime = 0.05 s



Wall heat fluxes [W]
movingWall -0.405239 2.62341e-15 0.41108 0.00584097
left 0.0578997 3.4686e-17 1.11172 1.16962
right -0.609857 -7.75725e-15 -1.89641 -2.50627
bottom -0.370205 0 0.373615 0.00340952
frontAndBack 0 0 0 0
sum -1.3274 -5.09915e-15 -2.13868e-07 -1.3274


Wall heat fluxes [W]
topAndBottom 0 0 0 0
left 2.58861 0 0 2.58861
right -2.60362 0 0 -2.60362
frontAndBack 0 0 0 0
sum -0.0150096 0 0 -0.0150096

Time = 18

DILUPBiCG:  Solving for Ux, Initial residual = 0.0325061, Final residual = 3.78153e-06, No Iterations 2
DILUPBiCG:  Solving for Uy, Initial residual = 0.0472585, Final residual = 0.000367382, No Iterations 1
DICPCG:  Solving for p_rgh, Initial residual = 0.0732978, Final residual = 0.000426406, No Iterations 9
time step continuity errors : sum local = 0.0009487, global = 1.81583e-16, cumulative = 3.78061e-16
DILUPBiCG:  Solving for epsilon, Initial residual = 0.0251995, Final residual = 2.15554e-05, No Iterations 2
DILUPBiCG:  Solving for k, Initial residual = 0.0514713, Final residual = 7.61839e-05, No Iterations 2
DICPCG:  Solving for G, Initial residual = 0.00287379, Final residual = 0.000205407, No Iterations 11
BiCG:  Solving for T+T, Initial residual = 0.00218882, Final residual = 0.000201975, No Iterations 1
ExecutionTime = 0.05 s



Wall heat fluxes [W]
movingWall -0.398376 -1.31775e-15 0.404325 0.00594886
left 0.0611127 -9.71208e-16 1.11662 1.17774
right -0.60728 1.25022e-14 -1.89266 -2.49994
bottom -0.368347 0 0.371707 0.00336008
frontAndBack 0 0 0 0
sum -1.31289 1.02132e-14 -1.67735e-07 -1.31289


Wall heat fluxes [W]
topAndBottom 0 0 0 0
left 2.58695 0 0 2.58695
right -2.60126 0 0 -2.60126
frontAndBack 0 0 0 0
sum -0.0143122 0 0 -0.0143122

Time = 19

DILUPBiCG:  Solving for Ux, Initial residual = 0.0304635, Final residual = 2.84728e-06, No Iterations 2
DILUPBiCG:  Solving for Uy, Initial residual = 0.0462221, Final residual = 0.000370698, No Iterations 1
DICPCG:  Solving for p_rgh, Initial residual = 0.0710461, Final residual = 0.00060767, No Iterations 9
time step continuity errors : sum local = 0.00142892, global = 9.31736e-17, cumulative = 4.71234e-16
DILUPBiCG:  Solving for epsilon, Initial residual = 0.0255939, Final residual = 2.3488e-05, No Iterations 2
DILUPBiCG:  Solving for k, Initial residual = 0.0521481, Final residual = 8.25479e-05, No Iterations 2
DICPCG:  Solving for G, Initial residual = 0.00292413, Final residual = 0.000154777, No Iterations 11
BiCG:  Solving for T+T, Initial residual = 0.00220571, Final residual = 0.000208422, No Iterations 1
ExecutionTime = 0.05 s



Wall heat fluxes [W]
movingWall -0.391263 5.43922e-15 0.397452 0.00618861
left 0.0654413 -6.24348e-16 1.12163 1.18707
right -0.605014 -8.6205e-16 -1.88907 -2.49409
bottom -0.36673 0 0.369994 0.00326406
frontAndBack 0 0 0 0
sum -1.29757 3.95282e-15 -2.52631e-07 -1.29757


Wall heat fluxes [W]
topAndBottom 0 0 0 0
left 2.58554 0 0 2.58554
right -2.59897 0 0 -2.59897
frontAndBack 0 0 0 0
sum -0.0134296 0 0 -0.0134296

Time = 20

DILUPBiCG:  Solving for Ux, Initial residual = 0.0285825, Final residual = 2.27818e-06, No Iterations 2
DILUPBiCG:  Solving for Uy, Initial residual = 0.0453898, Final residual = 0.000373174, No Iterations 1
DICPCG:  Solving for p_rgh, Initial residual = 0.0699201, Final residual = 0.000605735, No Iterations 10
time step continuity errors : sum local = 0.00141997, global = -3.50468e-16, cumulative = 1.20767e-16
DILUPBiCG:  Solving for epsilon, Initial residual = 0.0262052, Final residual = 2.56904e-05, No Iterations 2
DILUPBiCG:  Solving for k, Initial residual = 0.0528207, Final residual = 8.94004e-05, No Iterations 2
DICPCG:  Solving for G, Initial residual = 0.00293543, Final residual = 0.000118644, No Iterations 11
BiCG:  Solving for T+T, Initial residual = 0.00221954, Final residual = 0.000215086, No Iterations 1
ExecutionTime = 0.06 s



Wall heat fluxes [W]
movingWall -0.383723 -1.44281e-15 0.390191 0.00646718
left 0.0710563 7.63092e-16 1.12673 1.19778
right -0.602945 -1.81099e-14 -1.88548 -2.48842
bottom -0.365425 0 0.368564 0.00313912
frontAndBack 0 0 0 0
sum -1.28104 -1.87896e-14 -1.00191e-07 -1.28104


Wall heat fluxes [W]
topAndBottom 0 0 0 0
left 2.58295 0 0 2.58295
right -2.59674 0 0 -2.59674
frontAndBack 0 0 0 0
sum -0.0137913 0 0 -0.0137913

Time = 21

DILUPBiCG:  Solving for Ux, Initial residual = 0.0269965, Final residual = 1.9511e-06, No Iterations 2
DILUPBiCG:  Solving for Uy, Initial residual = 0.0439083, Final residual = 0.000372843, No Iterations 1
DICPCG:  Solving for p_rgh, Initial residual = 0.0678134, Final residual = 0.000663366, No Iterations 10
time step continuity errors : sum local = 0.00159614, global = -3.77724e-16, cumulative = -2.56957e-16
DILUPBiCG:  Solving for epsilon, Initial residual = 0.0264818, Final residual = 2.78263e-05, No Iterations 2
DILUPBiCG:  Solving for k, Initial residual = 0.0537564, Final residual = 9.54905e-05, No Iterations 2
DICPCG:  Solving for G, Initial residual = 0.00299368, Final residual = 0.000160914, No Iterations 11
BiCG:  Solving for T+T, Initial residual = 0.00223052, Final residual = 0.000222119, No Iterations 1
ExecutionTime = 0.06 s



Wall heat fluxes [W]
movingWall -0.375712 -6.81203e-15 0.382468 0.00675572
left 0.0781694 -1.10995e-15 1.13192 1.21009
right -0.600984 -8.62337e-15 -1.88186 -2.48285
bottom -0.364367 0 0.367478 0.0031107
frontAndBack 0 0 0 0
sum -1.26289 -1.65454e-14 -2.82581e-07 -1.26289


Wall heat fluxes [W]
topAndBottom 0 0 0 0
left 2.58024 0 0 2.58024
right -2.59454 0 0 -2.59454
frontAndBack 0 0 0 0
sum -0.0143069 0 0 -0.0143069

Time = 22

DILUPBiCG:  Solving for Ux, Initial residual = 0.0253508, Final residual = 1.72469e-06, No Iterations 2
DILUPBiCG:  Solving for Uy, Initial residual = 0.0426517, Final residual = 0.000374974, No Iterations 1
DICPCG:  Solving for p_rgh, Initial residual = 0.0637743, Final residual = 0.000562355, No Iterations 10
time step continuity errors : sum local = 0.00140152, global = -7.51742e-17, cumulative = -3.32131e-16
DILUPBiCG:  Solving for epsilon, Initial residual = 0.0264662, Final residual = 3.0181e-05, No Iterations 2
DILUPBiCG:  Solving for k, Initial residual = 0.0545927, Final residual = 0.000100579, No Iterations 2
DICPCG:  Solving for G, Initial residual = 0.00308061, Final residual = 0.000287411, No Iterations 11
BiCG:  Solving for T+T, Initial residual = 0.0022342, Final residual = 0.000102206, No Iterations 3
ExecutionTime = 0.06 s



Wall heat fluxes [W]
movingWall -0.367051 -4.01535e-15 0.37431 0.00725924
left 0.0872084 -4.50918e-16 1.13726 1.22447
right -0.598985 3.0182e-15 -1.87816 -2.47714
bottom -0.363538 0 0.366591 0.00305282
frontAndBack 0 0 0 0
sum -1.24237 -1.44806e-15 -7.5261e-07 -1.24237


Wall heat fluxes [W]
topAndBottom 0 0 0 0
left 3.36859 0 0 3.36859
right -2.57242 0 0 -2.57242
frontAndBack 0 0 0 0
sum 0.796165 0 0 0.796165

Time = 23

DILUPBiCG:  Solving for Ux, Initial residual = 0.0234065, Final residual = 1.58684e-06, No Iterations 2
DILUPBiCG:  Solving for Uy, Initial residual = 0.0409942, Final residual = 0.000383649, No Iterations 1
DICPCG:  Solving for p_rgh, Initial residual = 0.0578356, Final residual = 0.000436105, No Iterations 10
time step continuity errors : sum local = 0.00109882, global = 8.57621e-17, cumulative = -2.46369e-16
DILUPBiCG:  Solving for epsilon, Initial residual = 0.0260262, Final residual = 3.26342e-05, No Iterations 2
DILUPBiCG:  Solving for k, Initial residual = 0.0550496, Final residual = 0.000104876, No Iterations 2
DICPCG:  Solving for G, Initial residual = 0.00326854, Final residual = 8.22499e-05, No Iterations 13
BiCG:  Solving for T+T, Initial residual = 0.00220915, Final residual = 0.000186835, No Iterations 1
ExecutionTime = 0.06 s



Wall heat fluxes [W]
movingWall -0.358124 -2.75877e-15 0.365382 0.00725737
left 0.0976033 -1.10995e-15 1.14284 1.24044
right -0.599325 8.63442e-15 -1.87427 -2.4736
bottom -0.362968 0 0.366054 0.00308539
frontAndBack 0 0 0 0
sum -1.22281 4.7657e-15 1.23779e-07 -1.22281


Wall heat fluxes [W]
topAndBottom 0 0 0 0
left 2.52571 0 0 2.52571
right -2.57001 0 0 -2.57001
frontAndBack 0 0 0 0
sum -0.0442945 0 0 -0.0442945

Time = 24

DILUPBiCG:  Solving for Ux, Initial residual = 0.0214062, Final residual = 1.56922e-06, No Iterations 2
DILUPBiCG:  Solving for Uy, Initial residual = 0.0395518, Final residual = 0.000366225, No Iterations 1
DICPCG:  Solving for p_rgh, Initial residual = 0.0546186, Final residual = 0.000423549, No Iterations 10
time step continuity errors : sum local = 0.00106222, global = -1.50613e-16, cumulative = -3.96982e-16
DILUPBiCG:  Solving for epsilon, Initial residual = 0.0253308, Final residual = 3.47549e-05, No Iterations 2
DILUPBiCG:  Solving for k, Initial residual = 0.0551283, Final residual = 0.000108781, No Iterations 2
DICPCG:  Solving for G, Initial residual = 0.00494858, Final residual = 0.000266065, No Iterations 12
BiCG:  Solving for T+T, Initial residual = 0.00217323, Final residual = 0.000200278, No Iterations 1
ExecutionTime = 0.06 s



Wall heat fluxes [W]
movingWall -0.350782 -2.82023e-15 0.359838 0.00905581
left 0.109935 2.04647e-15 1.15176 1.2617
right -0.597121 -6.47546e-15 -1.88043 -2.47756
bottom -0.364218 0 0.368832 0.00461402
frontAndBack 0 0 0 0
sum -1.20219 -7.24922e-15 1.56607e-07 -1.20219


Wall heat fluxes [W]
topAndBottom 0 0 0 0
left 2.54604 0 0 2.54604
right -2.56751 0 0 -2.56751
frontAndBack 0 0 0 0
sum -0.0214698 0 0 -0.0214698

Time = 25

DILUPBiCG:  Solving for Ux, Initial residual = 0.020071, Final residual = 1.48184e-06, No Iterations 2
DILUPBiCG:  Solving for Uy, Initial residual = 0.0357298, Final residual = 0.000352038, No Iterations 1
DICPCG:  Solving for p_rgh, Initial residual = 0.0513333, Final residual = 0.000452252, No Iterations 10
time step continuity errors : sum local = 0.00121982, global = -1.40294e-16, cumulative = -5.37276e-16
DILUPBiCG:  Solving for epsilon, Initial residual = 0.0242062, Final residual = 3.65232e-05, No Iterations 2
DILUPBiCG:  Solving for k, Initial residual = 0.0550343, Final residual = 0.000111816, No Iterations 2
DICPCG:  Solving for G, Initial residual = 0.00398113, Final residual = 0.000370288, No Iterations 12
BiCG:  Solving for T+T, Initial residual = 0.00215117, Final residual = 0.000210989, No Iterations 1
ExecutionTime = 0.07 s



Wall heat fluxes [W]
movingWall -0.340935 1.33055e-15 0.348746 0.00781067
left 0.123991 -2.25459e-15 1.1588 1.28279
right -0.594907 -5.60999e-15 -1.87417 -2.46907
bottom -0.363505 0 0.366622 0.00311738
frontAndBack 0 0 0 0
sum -1.17536 -6.53403e-15 1.52934e-07 -1.17536


Wall heat fluxes [W]
topAndBottom 0 0 0 0
left 2.55083 0 0 2.55083
right -2.56506 0 0 -2.56506
frontAndBack 0 0 0 0
sum -0.014228 0 0 -0.014228

Time = 26

DILUPBiCG:  Solving for Ux, Initial residual = 0.0182474, Final residual = 1.57186e-06, No Iterations 2
DILUPBiCG:  Solving for Uy, Initial residual = 0.035153, Final residual = 4.43137e-06, No Iterations 2
DICPCG:  Solving for p_rgh, Initial residual = 0.0484301, Final residual = 0.000393529, No Iterations 11
time step continuity errors : sum local = 0.00108694, global = 1.2732e-16, cumulative = -4.09957e-16
DILUPBiCG:  Solving for epsilon, Initial residual = 0.0226854, Final residual = 3.67214e-05, No Iterations 2
DILUPBiCG:  Solving for k, Initial residual = 0.054339, Final residual = 0.000114081, No Iterations 2
DICPCG:  Solving for G, Initial residual = 0.00339084, Final residual = 0.000327787, No Iterations 12
BiCG:  Solving for T+T, Initial residual = 0.00211794, Final residual = 0.000192584, No Iterations 2
ExecutionTime = 0.07 s



Wall heat fluxes [W]
movingWall -0.33052 -1.3686e-15 0.338909 0.00838883
left 0.139836 -3.4686e-16 1.16458 1.30442
right -0.592709 9.50157e-15 -1.86964 -2.46235
bottom -0.362777 0 0.366155 0.00337778
frontAndBack 0 0 0 0
sum -1.14617 7.78611e-15 2.04154e-07 -1.14617


Wall heat fluxes [W]
topAndBottom 0 0 0 0
left 2.72216 0 0 2.72216
right -2.55867 0 0 -2.55867
frontAndBack 0 0 0 0
sum 0.163484 0 0 0.163484

Time = 27

DILUPBiCG:  Solving for Ux, Initial residual = 0.0169707, Final residual = 2.14088e-06, No Iterations 2
DILUPBiCG:  Solving for Uy, Initial residual = 0.0313631, Final residual = 9.55173e-06, No Iterations 2
DICPCG:  Solving for p_rgh, Initial residual = 0.0415868, Final residual = 0.000410186, No Iterations 11
time step continuity errors : sum local = 0.00113134, global = -1.0535e-16, cumulative = -5.15306e-16
DILUPBiCG:  Solving for epsilon, Initial residual = 0.0208048, Final residual = 3.94494e-05, No Iterations 2
DILUPBiCG:  Solving for k, Initial residual = 0.0531132, Final residual = 0.000113829, No Iterations 2
DICPCG:  Solving for G, Initial residual = 0.00361925, Final residual = 0.000339702, No Iterations 12
BiCG:  Solving for T+T, Initial residual = 0.00208218, Final residual = 0.000191837, No Iterations 2
ExecutionTime = 0.07 s



Wall heat fluxes [W]
movingWall -0.320268 -2.67394e-15 0.328377 0.00810973
left 0.156502 -6.59034e-16 1.17084 1.32734
right -0.590906 1.72803e-18 -1.86485 -2.45576
bottom -0.362088 0 0.365636 0.00354718
frontAndBack 0 0 0 0
sum -1.11676 -3.33125e-15 3.35471e-07 -1.11676


Wall heat fluxes [W]
topAndBottom 0 0 0 0
left 2.67386 0 0 2.67386
right -2.5529 0 0 -2.5529
frontAndBack 0 0 0 0
sum 0.120955 0 0 0.120955

Time = 28

DILUPBiCG:  Solving for Ux, Initial residual = 0.0153297, Final residual = 2.95308e-06, No Iterations 2
DILUPBiCG:  Solving for Uy, Initial residual = 0.0285183, Final residual = 4.17653e-06, No Iterations 2
DICPCG:  Solving for p_rgh, Initial residual = 0.0387114, Final residual = 0.000369484, No Iterations 11
time step continuity errors : sum local = 0.00104727, global = 2.71311e-16, cumulative = -2.43995e-16
DILUPBiCG:  Solving for epsilon, Initial residual = 0.0190043, Final residual = 5.09696e-05, No Iterations 2
DILUPBiCG:  Solving for k, Initial residual = 0.0514233, Final residual = 0.000112427, No Iterations 2
DICPCG:  Solving for G, Initial residual = 0.0040172, Final residual = 0.000280505, No Iterations 12
BiCG:  Solving for T+T, Initial residual = 0.00203598, Final residual = 0.000192857, No Iterations 2
ExecutionTime = 0.07 s



Wall heat fluxes [W]
movingWall -0.31093 4.17956e-15 0.319111 0.00818097
left 0.173862 -1.00589e-15 1.17779 1.35165
right -0.588856 9.50993e-15 -1.86238 -2.45123
bottom -0.361564 0 0.365481 0.00391675
frontAndBack 0 0 0 0
sum -1.08749 1.26836e-14 4.91823e-09 -1.08749


Wall heat fluxes [W]
topAndBottom 0 0 0 0
left 2.66715 0 0 2.66715
right -2.54722 0 0 -2.54722
frontAndBack 0 0 0 0
sum 0.119925 0 0 0.119925

Time = 29

DILUPBiCG:  Solving for Ux, Initial residual = 0.0140072, Final residual = 6.22951e-06, No Iterations 2
DILUPBiCG:  Solving for Uy, Initial residual = 0.0254088, Final residual = 3.09901e-06, No Iterations 2
DICPCG:  Solving for p_rgh, Initial residual = 0.0371134, Final residual = 0.000288003, No Iterations 11
time step continuity errors : sum local = 0.000839145, global = 1.90318e-16, cumulative = -5.36776e-17
DILUPBiCG:  Solving for epsilon, Initial residual = 0.0174186, Final residual = 0.000123993, No Iterations 2
DILUPBiCG:  Solving for k, Initial residual = 0.0494529, Final residual = 0.000111572, No Iterations 2
DICPCG:  Solving for G, Initial residual = 0.00400364, Final residual = 0.000365193, No Iterations 11
BiCG:  Solving for T+T, Initial residual = 0.00198942, Final residual = 0.000194599, No Iterations 2
ExecutionTime = 0.07 s



Wall heat fluxes [W]
movingWall -0.301967 3.36625e-15 0.309734 0.00776704
left 0.191552 1.04058e-15 1.18477 1.37632
right -0.586697 8.62866e-16 -1.85913 -2.44583
bottom -0.360738 0 0.364623 0.00388487
frontAndBack 0 0 0 0
sum -1.05785 5.2697e-15 -1.06025e-06 -1.05785


Wall heat fluxes [W]
topAndBottom 0 0 0 0
left 2.66212 0 0 2.66212
right -2.54156 0 0 -2.54156
frontAndBack 0 0 0 0
sum 0.120553 0 0 0.120553

Time = 30

DILUPBiCG:  Solving for Ux, Initial residual = 0.0128808, Final residual = 2.34134e-05, No Iterations 2
DILUPBiCG:  Solving for Uy, Initial residual = 0.0227036, Final residual = 2.6517e-05, No Iterations 2
DICPCG:  Solving for p_rgh, Initial residual = 0.0345007, Final residual = 0.000157818, No Iterations 11
time step continuity errors : sum local = 0.000441632, global = 5.87629e-17, cumulative = 5.08535e-18
DILUPBiCG:  Solving for epsilon, Initial residual = 0.0162406, Final residual = 0.000101448, No Iterations 2
DILUPBiCG:  Solving for k, Initial residual = 0.047028, Final residual = 0.00012216, No Iterations 2
DICPCG:  Solving for G, Initial residual = 0.00399302, Final residual = 0.00026877, No Iterations 12
BiCG:  Solving for T+T, Initial residual = 0.0019437, Final residual = 0.000166004, No Iterations 3
ExecutionTime = 0.08 s



Wall heat fluxes [W]
movingWall -0.293913 1.4044e-15 0.30096 0.00704673
left 0.208972 1.10995e-15 1.19153 1.4005
right -0.584332 2.15959e-15 -1.85609 -2.44042
bottom -0.359698 0 0.363601 0.00390298
frontAndBack 0 0 0 0
sum -1.02897 4.67394e-15 2.78575e-07 -1.02897


Wall heat fluxes [W]
topAndBottom 0 0 0 0
left 3.13677 0 0 3.13677
right -2.52107 0 0 -2.52107
frontAndBack 0 0 0 0
sum 0.615699 0 0 0.615699

Time = 31

DILUPBiCG:  Solving for Ux, Initial residual = 0.0116998, Final residual = 4.72825e-06, No Iterations 2
DILUPBiCG:  Solving for Uy, Initial residual = 0.0201558, Final residual = 8.7812e-06, No Iterations 2
DICPCG:  Solving for p_rgh, Initial residual = 0.03155, Final residual = 0.000164886, No Iterations 11
time step continuity errors : sum local = 0.000449648, global = 2.75286e-17, cumulative = 3.26139e-17
DILUPBiCG:  Solving for epsilon, Initial residual = 0.0152719, Final residual = 3.12544e-05, No Iterations 2
DILUPBiCG:  Solving for k, Initial residual = 0.0448503, Final residual = 6.97553e-05, No Iterations 2
DICPCG:  Solving for G, Initial residual = 0.00368096, Final residual = 0.000275614, No Iterations 11
BiCG:  Solving for T+T, Initial residual = 0.00190436, Final residual = 0.000187853, No Iterations 1
ExecutionTime = 0.08 s



Wall heat fluxes [W]
movingWall -0.286575 1.36597e-15 0.293279 0.00670405
left 0.226725 1.59556e-15 1.19793 1.42465
right -0.583268 -4.31814e-16 -1.8534 -2.43667
bottom -0.358493 0 0.362196 0.00370318
frontAndBack 0 0 0 0
sum -1.00161 2.52971e-15 -1.78265e-07 -1.00161


Wall heat fluxes [W]
topAndBottom 0 0 0 0
left 2.4939 0 0 2.4939
right -2.51903 0 0 -2.51903
frontAndBack 0 0 0 0
sum -0.025131 0 0 -0.025131

Time = 32

DILUPBiCG:  Solving for Ux, Initial residual = 0.0103726, Final residual = 6.92515e-06, No Iterations 2
DILUPBiCG:  Solving for Uy, Initial residual = 0.0183048, Final residual = 5.35213e-06, No Iterations 2
DICPCG:  Solving for p_rgh, Initial residual = 0.0295305, Final residual = 0.000251558, No Iterations 6
time step continuity errors : sum local = 0.000879307, global = -2.43522e-17, cumulative = 8.26172e-18
DILUPBiCG:  Solving for epsilon, Initial residual = 0.0146858, Final residual = 1.82642e-05, No Iterations 2
DILUPBiCG:  Solving for k, Initial residual = 0.0425951, Final residual = 7.20089e-05, No Iterations 2
DICPCG:  Solving for G, Initial residual = 0.00468183, Final residual = 0.000359786, No Iterations 12
BiCG:  Solving for T+T, Initial residual = 0.00182224, Final residual = 0.000160955, No Iterations 2
ExecutionTime = 0.08 s



Wall heat fluxes [W]
movingWall -0.280717 6.98814e-16 0.288062 0.0073454
left 0.24364 2.63614e-15 1.20609 1.44973
right -0.58043 -9.08602e-15 -1.85711 -2.43754
bottom -0.357944 0 0.362964 0.00501983
frontAndBack 0 0 0 0
sum -0.975451 -5.75107e-15 3.15869e-08 -0.975451


Wall heat fluxes [W]
topAndBottom 0 0 0 0
left 2.6319 0 0 2.6319
right -2.51379 0 0 -2.51379
frontAndBack 0 0 0 0
sum 0.118108 0 0 0.118108

Time = 33

DILUPBiCG:  Solving for Ux, Initial residual = 0.0107471, Final residual = 2.55454e-06, No Iterations 2
DILUPBiCG:  Solving for Uy, Initial residual = 0.0147001, Final residual = 0.000146642, No Iterations 1
DICPCG:  Solving for p_rgh, Initial residual = 0.0243849, Final residual = 0.000230051, No Iterations 7
time step continuity errors : sum local = 0.000938683, global = -2.12817e-16, cumulative = -2.04555e-16
DILUPBiCG:  Solving for epsilon, Initial residual = 0.0142227, Final residual = 1.36367e-05, No Iterations 2
DILUPBiCG:  Solving for k, Initial residual = 0.0407423, Final residual = 7.1934e-05, No Iterations 2
DICPCG:  Solving for G, Initial residual = 0.00374833, Final residual = 0.000355171, No Iterations 11
BiCG:  Solving for T+T, Initial residual = 0.00179946, Final residual = 0.00016755, No Iterations 2
ExecutionTime = 0.08 s



Wall heat fluxes [W]
movingWall -0.274069 -2.02443e-15 0.279781 0.00571223
left 0.259562 -2.77488e-16 1.2125 1.47206
right -0.578001 -7.78807e-15 -1.85161 -2.42961
bottom -0.355453 0 0.359329 0.00387564
frontAndBack 0 0 0 0
sum -0.947961 -1.009e-14 2.86561e-08 -0.947961


Wall heat fluxes [W]
topAndBottom 0 0 0 0
left 2.61087 0 0 2.61087
right -2.50886 0 0 -2.50886
frontAndBack 0 0 0 0
sum 0.102014 0 0 0.102014

Time = 34

DILUPBiCG:  Solving for Ux, Initial residual = 0.00986812, Final residual = 2.60861e-06, No Iterations 2
DILUPBiCG:  Solving for Uy, Initial residual = 0.0145038, Final residual = 0.00014193, No Iterations 1
DICPCG:  Solving for p_rgh, Initial residual = 0.0210391, Final residual = 0.000136934, No Iterations 7
time step continuity errors : sum local = 0.000574373, global = 8.52327e-17, cumulative = -1.19323e-16
DILUPBiCG:  Solving for epsilon, Initial residual = 0.0138108, Final residual = 1.05493e-05, No Iterations 2
DILUPBiCG:  Solving for k, Initial residual = 0.0392606, Final residual = 6.93479e-05, No Iterations 2
DICPCG:  Solving for G, Initial residual = 0.00334136, Final residual = 0.000198048, No Iterations 11
BiCG:  Solving for T+T, Initial residual = 0.00177406, Final residual = 0.000174995, No Iterations 2
ExecutionTime = 0.08 s



Wall heat fluxes [W]
movingWall -0.26847 3.4319e-15 0.274011 0.0055408
left 0.274421 9.71208e-16 1.21814 1.49256
right -0.57551 -8.65884e-16 -1.84937 -2.42488
bottom -0.352893 0 0.35722 0.00432734
frontAndBack 0 0 0 0
sum -0.922452 3.53722e-15 -8.72171e-08 -0.922452


Wall heat fluxes [W]
topAndBottom 0 0 0 0
left 2.60745 0 0 2.60745
right -2.50408 0 0 -2.50408
frontAndBack 0 0 0 0
sum 0.103375 0 0 0.103375

Time = 35

DILUPBiCG:  Solving for Ux, Initial residual = 0.00917851, Final residual = 8.51463e-05, No Iterations 1
DILUPBiCG:  Solving for Uy, Initial residual = 0.0131424, Final residual = 7.98999e-05, No Iterations 2
DICPCG:  Solving for p_rgh, Initial residual = 0.0183311, Final residual = 6.77253e-05, No Iterations 7
time step continuity errors : sum local = 0.000215565, global = 1.33408e-16, cumulative = 1.40851e-17
DILUPBiCG:  Solving for epsilon, Initial residual = 0.0131853, Final residual = 8.53165e-06, No Iterations 2
DILUPBiCG:  Solving for k, Initial residual = 0.0378038, Final residual = 6.99766e-05, No Iterations 2
DICPCG:  Solving for G, Initial residual = 0.00328099, Final residual = 0.000122697, No Iterations 11
BiCG:  Solving for T+T, Initial residual = 0.00174848, Final residual = 0.000168606, No Iterations 3
ExecutionTime = 0.09 s



Wall heat fluxes [W]
movingWall -0.263636 -7.08126e-16 0.268652 0.00501658
left 0.287945 2.49739e-15 1.22386 1.5118
right -0.572903 2.59589e-15 -1.84679 -2.41969
bottom -0.349952 0 0.35428 0.00432841
frontAndBack 0 0 0 0
sum -0.898546 4.38516e-15 -1.19011e-07 -0.898546


Wall heat fluxes [W]
topAndBottom 0 0 0 0
left 3.00708 0 0 3.00708
right -2.487 0 0 -2.487
frontAndBack 0 0 0 0
sum 0.520078 0 0 0.520078

Time = 36

DILUPBiCG:  Solving for Ux, Initial residual = 0.00844675, Final residual = 7.45494e-05, No Iterations 1
DILUPBiCG:  Solving for Uy, Initial residual = 0.0123416, Final residual = 1.45414e-05, No Iterations 2
DICPCG:  Solving for p_rgh, Initial residual = 0.0163047, Final residual = 7.29935e-05, No Iterations 12
time step continuity errors : sum local = 0.000197819, global = 1.47701e-16, cumulative = 1.61786e-16
DILUPBiCG:  Solving for epsilon, Initial residual = 0.01247, Final residual = 8.0596e-06, No Iterations 2
DILUPBiCG:  Solving for k, Initial residual = 0.0363686, Final residual = 7.63637e-05, No Iterations 2
DICPCG:  Solving for G, Initial residual = 0.00309158, Final residual = 0.000131893, No Iterations 11
BiCG:  Solving for T+T, Initial residual = 0.00173274, Final residual = 0.000164459, No Iterations 1
ExecutionTime = 0.09 s



Wall heat fluxes [W]
movingWall -0.259296 2.09201e-15 0.264089 0.0047931
left 0.300926 -1.52618e-15 1.22931 1.53024
right -0.57136 8.23253e-15 -1.84449 -2.41585
bottom -0.346955 0 0.351085 0.0041301
frontAndBack 0 0 0 0
sum -0.876685 8.79835e-15 -9.88627e-08 -0.876685


Wall heat fluxes [W]
topAndBottom 0 0 0 0
left 2.46187 0 0 2.46187
right -2.48525 0 0 -2.48525
frontAndBack 0 0 0 0
sum -0.0233828 0 0 -0.0233828

Time = 37

DILUPBiCG:  Solving for Ux, Initial residual = 0.00760295, Final residual = 6.59723e-05, No Iterations 1
DILUPBiCG:  Solving for Uy, Initial residual = 0.0121135, Final residual = 1.4781e-05, No Iterations 2
DICPCG:  Solving for p_rgh, Initial residual = 0.0163283, Final residual = 0.000131158, No Iterations 11
time step continuity errors : sum local = 0.000362908, global = 5.05573e-17, cumulative = 2.12344e-16
DILUPBiCG:  Solving for epsilon, Initial residual = 0.0117754, Final residual = 7.76395e-06, No Iterations 2
DILUPBiCG:  Solving for k, Initial residual = 0.0349414, Final residual = 8.71079e-05, No Iterations 2
DICPCG:  Solving for G, Initial residual = 0.00393381, Final residual = 0.000368086, No Iterations 12
BiCG:  Solving for T+T, Initial residual = 0.00164861, Final residual = 0.000156185, No Iterations 2
ExecutionTime = 0.09 s



Wall heat fluxes [W]
movingWall -0.256216 -1.41782e-15 0.261493 0.00527703
left 0.312031 1.7343e-15 1.23628 1.54831
right -0.568419 4.33234e-16 -1.84758 -2.416
bottom -0.344366 0 0.349812 0.00544593
frontAndBack 0 0 0 0
sum -0.85697 7.49716e-16 1.7658e-08 -0.85697


Wall heat fluxes [W]
topAndBottom 0 0 0 0
left 2.60412 0 0 2.60412
right -2.48044 0 0 -2.48044
frontAndBack 0 0 0 0
sum 0.123683 0 0 0.123683

Time = 38

DILUPBiCG:  Solving for Ux, Initial residual = 0.00820699, Final residual = 7.14087e-05, No Iterations 1
DILUPBiCG:  Solving for Uy, Initial residual = 0.010497, Final residual = 2.51657e-06, No Iterations 2
DICPCG:  Solving for p_rgh, Initial residual = 0.0150008, Final residual = 0.000120095, No Iterations 11
time step continuity errors : sum local = 0.000331144, global = 8.60268e-17, cumulative = 2.98371e-16
DILUPBiCG:  Solving for epsilon, Initial residual = 0.0111295, Final residual = 7.38026e-06, No Iterations 2
DILUPBiCG:  Solving for k, Initial residual = 0.0335072, Final residual = 9.96564e-05, No Iterations 2
DICPCG:  Solving for G, Initial residual = 0.00329092, Final residual = 0.000314069, No Iterations 10
BiCG:  Solving for T+T, Initial residual = 0.00164773, Final residual = 0.000150226, No Iterations 3
ExecutionTime = 0.09 s



Wall heat fluxes [W]
movingWall -0.252474 -1.06365e-17 0.256484 0.00401063
left 0.321909 -6.9372e-17 1.24182 1.56373
right -0.565758 2.60053e-15 -1.84277 -2.40853
bottom -0.340289 0 0.344465 0.00417651
frontAndBack 0 0 0 0
sum -0.836611 2.52052e-15 -7.73256e-07 -0.836612


Wall heat fluxes [W]
topAndBottom 0 0 0 0
left 2.91972 0 0 2.91972
right -2.46511 0 0 -2.46511
frontAndBack 0 0 0 0
sum 0.454609 0 0 0.454609

Time = 39

DILUPBiCG:  Solving for Ux, Initial residual = 0.0078316, Final residual = 6.87569e-05, No Iterations 1
DILUPBiCG:  Solving for Uy, Initial residual = 0.0114365, Final residual = 2.42931e-05, No Iterations 2
DICPCG:  Solving for p_rgh, Initial residual = 0.0147681, Final residual = 0.000104612, No Iterations 10
time step continuity errors : sum local = 0.000288548, global = 1.30231e-16, cumulative = 4.28602e-16
DILUPBiCG:  Solving for epsilon, Initial residual = 0.0104808, Final residual = 6.91678e-06, No Iterations 2
DILUPBiCG:  Solving for k, Initial residual = 0.0319402, Final residual = 0.000107738, No Iterations 2
DICPCG:  Solving for G, Initial residual = 0.0029213, Final residual = 0.000245078, No Iterations 11
BiCG:  Solving for T+T, Initial residual = 0.00163978, Final residual = 0.000143959, No Iterations 1
ExecutionTime = 0.09 s



Wall heat fluxes [W]
movingWall -0.249383 6.91278e-16 0.253389 0.00400612
left 0.331137 3.88483e-15 1.24673 1.57787
right -0.563863 4.3143e-16 -1.84116 -2.40502
bottom -0.336606 0 0.341033 0.00442759
frontAndBack 0 0 0 0
sum -0.818715 5.00754e-15 -1.16577e-07 -0.818715


Wall heat fluxes [W]
topAndBottom 0 0 0 0
left 2.43991 0 0 2.43991
right -2.46368 0 0 -2.46368
frontAndBack 0 0 0 0
sum -0.0237734 0 0 -0.0237734

Time = 40

DILUPBiCG:  Solving for Ux, Initial residual = 0.0072679, Final residual = 7.08023e-05, No Iterations 1
DILUPBiCG:  Solving for Uy, Initial residual = 0.0115199, Final residual = 2.30957e-06, No Iterations 2
DICPCG:  Solving for p_rgh, Initial residual = 0.0162705, Final residual = 7.03084e-05, No Iterations 10
time step continuity errors : sum local = 0.000193403, global = 1.72054e-18, cumulative = 4.30322e-16
DILUPBiCG:  Solving for epsilon, Initial residual = 0.00981794, Final residual = 6.37564e-06, No Iterations 2
DILUPBiCG:  Solving for k, Initial residual = 0.0302861, Final residual = 0.000105542, No Iterations 2
DICPCG:  Solving for G, Initial residual = 0.0036943, Final residual = 0.000332814, No Iterations 12
BiCG:  Solving for T+T, Initial residual = 0.00156412, Final residual = 0.00015524, No Iterations 1
ExecutionTime = 0.1 s



Wall heat fluxes [W]
movingWall -0.247357 7.06954e-16 0.251796 0.00443859
left 0.339286 1.52618e-15 1.25313 1.59242
right -0.560531 -3.47318e-15 -1.84353 -2.40406
bottom -0.333465 0 0.338602 0.00513735
frontAndBack 0 0 0 0
sum -0.802067 -1.24005e-15 7.39897e-08 -0.802067


Wall heat fluxes [W]
topAndBottom 0 0 0 0
left 2.4483 0 0 2.4483
right -2.46219 0 0 -2.46219
frontAndBack 0 0 0 0
sum -0.013888 0 0 -0.013888

Time = 41

DILUPBiCG:  Solving for Ux, Initial residual = 0.00780849, Final residual = 6.81683e-05, No Iterations 1
DILUPBiCG:  Solving for Uy, Initial residual = 0.0107471, Final residual = 0.000101138, No Iterations 1
DICPCG:  Solving for p_rgh, Initial residual = 0.0168562, Final residual = 6.86696e-05, No Iterations 10
time step continuity errors : sum local = 0.000189605, global = 6.35275e-17, cumulative = 4.9385e-16
DILUPBiCG:  Solving for epsilon, Initial residual = 0.00919651, Final residual = 5.91631e-06, No Iterations 2
DILUPBiCG:  Solving for k, Initial residual = 0.0287974, Final residual = 9.8197e-05, No Iterations 2
DICPCG:  Solving for G, Initial residual = 0.00293447, Final residual = 8.40358e-05, No Iterations 11
BiCG:  Solving for T+T, Initial residual = 0.00155217, Final residual = 0.000127155, No Iterations 3
ExecutionTime = 0.1 s



Wall heat fluxes [W]
movingWall -0.244437 -7.30377e-16 0.247846 0.00340826
left 0.346189 3.60734e-15 1.25806 1.60424
right -0.557265 -4.33525e-15 -1.83916 -2.39642
bottom -0.329082 0 0.333259 0.00417719
frontAndBack 0 0 0 0
sum -0.784595 -1.45828e-15 -1.8716e-07 -0.784595


Wall heat fluxes [W]
topAndBottom 0 0 0 0
left 2.94766 0 0 2.94766
right -2.44858 0 0 -2.44858
frontAndBack 0 0 0 0
sum 0.499087 0 0 0.499087

Time = 42

DILUPBiCG:  Solving for Ux, Initial residual = 0.00768156, Final residual = 6.76594e-05, No Iterations 1
DILUPBiCG:  Solving for Uy, Initial residual = 0.0114574, Final residual = 0.000109, No Iterations 1
DICPCG:  Solving for p_rgh, Initial residual = 0.0163496, Final residual = 0.000159932, No Iterations 6
time step continuity errors : sum local = 0.000627737, global = -1.69936e-16, cumulative = 3.23914e-16
DILUPBiCG:  Solving for epsilon, Initial residual = 0.00868668, Final residual = 5.51278e-06, No Iterations 2
DILUPBiCG:  Solving for k, Initial residual = 0.0274338, Final residual = 9.01885e-05, No Iterations 2
DICPCG:  Solving for G, Initial residual = 0.00226784, Final residual = 7.66037e-05, No Iterations 11
BiCG:  Solving for T+T, Initial residual = 0.0015635, Final residual = 0.00013609, No Iterations 1
ExecutionTime = 0.1 s



Wall heat fluxes [W]
movingWall -0.241811 -1.43444e-15 0.245031 0.00322035
left 0.352516 -1.04058e-15 1.26205 1.61457
right -0.555317 -5.20654e-15 -1.836 -2.39131
bottom -0.324797 0 0.328912 0.00411427
frontAndBack 0 0 0 0
sum -0.769408 -7.68156e-15 -1.16082e-07 -0.769408


Wall heat fluxes [W]
topAndBottom 0 0 0 0
left 2.41144 0 0 2.41144
right -2.44734 0 0 -2.44734
frontAndBack 0 0 0 0
sum -0.0358996 0 0 -0.0358996

Time = 43

DILUPBiCG:  Solving for Ux, Initial residual = 0.00679574, Final residual = 1.10436e-06, No Iterations 2
DILUPBiCG:  Solving for Uy, Initial residual = 0.011598, Final residual = 0.000106965, No Iterations 1
DICPCG:  Solving for p_rgh, Initial residual = 0.0174604, Final residual = 9.65928e-05, No Iterations 10
time step continuity errors : sum local = 0.000275936, global = 1.21761e-17, cumulative = 3.3609e-16
DILUPBiCG:  Solving for epsilon, Initial residual = 0.00823466, Final residual = 5.17497e-06, No Iterations 2
DILUPBiCG:  Solving for k, Initial residual = 0.0260222, Final residual = 8.08636e-05, No Iterations 2
DICPCG:  Solving for G, Initial residual = 0.0033912, Final residual = 0.000336765, No Iterations 12
BiCG:  Solving for T+T, Initial residual = 0.0015019, Final residual = 0.000148808, No Iterations 1
ExecutionTime = 0.1 s



Wall heat fluxes [W]
movingWall -0.24057 -7.30798e-16 0.244643 0.00407339
left 0.358265 2.983e-15 1.26808 1.62634
right -0.551741 -3.47124e-15 -1.83946 -2.39121
bottom -0.321647 0 0.326742 0.00509502
frontAndBack 0 0 0 0
sum -0.755693 -1.21904e-15 -8.00432e-09 -0.755693


Wall heat fluxes [W]
topAndBottom 0 0 0 0
left 2.43083 0 0 2.43083
right -2.44595 0 0 -2.44595
frontAndBack 0 0 0 0
sum -0.0151141 0 0 -0.0151141

Time = 44

DILUPBiCG:  Solving for Ux, Initial residual = 0.00754468, Final residual = 6.59047e-05, No Iterations 1
DILUPBiCG:  Solving for Uy, Initial residual = 0.0105311, Final residual = 1.33654e-06, No Iterations 2
DICPCG:  Solving for p_rgh, Initial residual = 0.0180359, Final residual = 0.000164236, No Iterations 5
time step continuity errors : sum local = 0.00058674, global = -9.55559e-17, cumulative = 2.40534e-16
DILUPBiCG:  Solving for epsilon, Initial residual = 0.00773289, Final residual = 4.87824e-06, No Iterations 2
DILUPBiCG:  Solving for k, Initial residual = 0.0245673, Final residual = 7.03407e-05, No Iterations 2
DICPCG:  Solving for G, Initial residual = 0.00280155, Final residual = 0.000111913, No Iterations 11
BiCG:  Solving for T+T, Initial residual = 0.00149346, Final residual = 0.000127346, No Iterations 3
ExecutionTime = 0.1 s



Wall heat fluxes [W]
movingWall -0.238102 -4.18283e-15 0.241151 0.00304876
left 0.363353 1.38744e-15 1.27273 1.63609
right -0.548247 -8.66973e-16 -1.8351 -2.38334
bottom -0.317297 0 0.321213 0.00391644
frontAndBack 0 0 0 0
sum -0.740293 -3.66236e-15 -2.04965e-07 -0.740293


Wall heat fluxes [W]
topAndBottom 0 0 0 0
left 2.91431 0 0 2.91431
right -2.43271 0 0 -2.43271
frontAndBack 0 0 0 0
sum 0.481601 0 0 0.481601

Time = 45

DILUPBiCG:  Solving for Ux, Initial residual = 0.00743331, Final residual = 6.43554e-05, No Iterations 1
DILUPBiCG:  Solving for Uy, Initial residual = 0.0111345, Final residual = 0.000102887, No Iterations 1
DICPCG:  Solving for p_rgh, Initial residual = 0.0172797, Final residual = 0.000152224, No Iterations 5
time step continuity errors : sum local = 0.000549776, global = 1.5642e-16, cumulative = 3.96954e-16
DILUPBiCG:  Solving for epsilon, Initial residual = 0.00726515, Final residual = 4.61466e-06, No Iterations 2
DILUPBiCG:  Solving for k, Initial residual = 0.023177, Final residual = 6.2566e-05, No Iterations 2
DICPCG:  Solving for G, Initial residual = 0.00211297, Final residual = 0.000200759, No Iterations 10
BiCG:  Solving for T+T, Initial residual = 0.00151244, Final residual = 0.000133027, No Iterations 1
ExecutionTime = 0.11 s



Wall heat fluxes [W]
movingWall -0.235843 6.99396e-16 0.238726 0.00288294
left 0.368179 6.9372e-16 1.2764 1.64458
right -0.546027 6.082e-15 -1.83219 -2.37821
bottom -0.313272 0 0.317059 0.0037869
frontAndBack 0 0 0 0
sum -0.726963 7.47511e-15 -5.69093e-07 -0.726963


Wall heat fluxes [W]
topAndBottom 0 0 0 0
left 2.39492 0 0 2.39492
right -2.43152 0 0 -2.43152
frontAndBack 0 0 0 0
sum -0.0366049 0 0 -0.0366049

Time = 46

DILUPBiCG:  Solving for Ux, Initial residual = 0.00652059, Final residual = 6.4039e-05, No Iterations 1
DILUPBiCG:  Solving for Uy, Initial residual = 0.0111276, Final residual = 0.000104638, No Iterations 1
DICPCG:  Solving for p_rgh, Initial residual = 0.0180029, Final residual = 0.000166608, No Iterations 5
time step continuity errors : sum local = 0.000559377, global = -2.0117e-16, cumulative = 1.95784e-16
DILUPBiCG:  Solving for epsilon, Initial residual = 0.0068117, Final residual = 4.33929e-06, No Iterations 2
DILUPBiCG:  Solving for k, Initial residual = 0.0218709, Final residual = 5.60343e-05, No Iterations 2
DICPCG:  Solving for G, Initial residual = 0.00325311, Final residual = 0.000323593, No Iterations 12
BiCG:  Solving for T+T, Initial residual = 0.00144899, Final residual = 0.000119402, No Iterations 3
ExecutionTime = 0.11 s



Wall heat fluxes [W]
movingWall -0.234736 -1.37176e-15 0.238596 0.00386016
left 0.372747 -4.16232e-16 1.28201 1.65476
right -0.542299 -6.51662e-15 -1.83574 -2.37803
bottom -0.310388 0 0.315129 0.00474081
frontAndBack 0 0 0 0
sum -0.714677 -8.30461e-15 -2.17236e-08 -0.714677


Wall heat fluxes [W]
topAndBottom 0 0 0 0
left 2.82915 0 0 2.82915
right -2.41858 0 0 -2.41858
frontAndBack 0 0 0 0
sum 0.410569 0 0 0.410569

Time = 47

DILUPBiCG:  Solving for Ux, Initial residual = 0.0072478, Final residual = 6.12991e-05, No Iterations 1
DILUPBiCG:  Solving for Uy, Initial residual = 0.00985594, Final residual = 1.42348e-06, No Iterations 2
DICPCG:  Solving for p_rgh, Initial residual = 0.0173112, Final residual = 0.000150202, No Iterations 5
time step continuity errors : sum local = 0.000444261, global = 1.07997e-16, cumulative = 3.0378e-16
DILUPBiCG:  Solving for epsilon, Initial residual = 0.00638524, Final residual = 4.09266e-06, No Iterations 2
DILUPBiCG:  Solving for k, Initial residual = 0.0205966, Final residual = 5.06331e-05, No Iterations 2
DICPCG:  Solving for G, Initial residual = 0.0026317, Final residual = 0.000241936, No Iterations 10
BiCG:  Solving for T+T, Initial residual = 0.00147233, Final residual = 0.000124408, No Iterations 1
ExecutionTime = 0.11 s



Wall heat fluxes [W]
movingWall -0.232505 2.07456e-15 0.235232 0.00272722
left 0.377188 2.77488e-16 1.28636 1.66355
right -0.539699 3.04198e-15 -1.83161 -2.37131
bottom -0.306623 0 0.310011 0.00338746
frontAndBack 0 0 0 0
sum -0.70164 5.39403e-15 -7.82749e-07 -0.70164


Wall heat fluxes [W]
topAndBottom 0 0 0 0
left 2.38705 0 0 2.38705
right -2.41747 0 0 -2.41747
frontAndBack 0 0 0 0
sum -0.0304206 0 0 -0.0304206

Time = 48

DILUPBiCG:  Solving for Ux, Initial residual = 0.00649465, Final residual = 5.7419e-05, No Iterations 1
DILUPBiCG:  Solving for Uy, Initial residual = 0.0109094, Final residual = 0.000102012, No Iterations 1
DICPCG:  Solving for p_rgh, Initial residual = 0.0179014, Final residual = 7.33922e-05, No Iterations 6
time step continuity errors : sum local = 0.000362635, global = 3.1102e-17, cumulative = 3.34882e-16
DILUPBiCG:  Solving for epsilon, Initial residual = 0.00597443, Final residual = 3.85464e-06, No Iterations 2
DILUPBiCG:  Solving for k, Initial residual = 0.019426, Final residual = 4.64376e-05, No Iterations 2
DICPCG:  Solving for G, Initial residual = 0.00293899, Final residual = 0.000285397, No Iterations 12
BiCG:  Solving for T+T, Initial residual = 0.00140815, Final residual = 0.000137132, No Iterations 1
ExecutionTime = 0.11 s



Wall heat fluxes [W]
movingWall -0.23131 -2.0577e-15 0.234802 0.00349228
left 0.381624 -1.94242e-15 1.29136 1.67299
right -0.535771 5.65058e-15 -1.83443 -2.3702
bottom -0.304046 0 0.308266 0.00421957
frontAndBack 0 0 0 0
sum -0.689503 1.65046e-15 -1.56485e-09 -0.689503


Wall heat fluxes [W]
topAndBottom 0 0 0 0
left 2.40426 0 0 2.40426
right -2.41632 0 0 -2.41632
frontAndBack 0 0 0 0
sum -0.0120601 0 0 -0.0120601

Time = 49

DILUPBiCG:  Solving for Ux, Initial residual = 0.00710445, Final residual = 5.96956e-05, No Iterations 1
DILUPBiCG:  Solving for Uy, Initial residual = 0.00993512, Final residual = 3.88137e-06, No Iterations 2
DICPCG:  Solving for p_rgh, Initial residual = 0.0178231, Final residual = 5.77012e-05, No Iterations 11
time step continuity errors : sum local = 0.000180794, global = 2.11758e-16, cumulative = 5.4664e-16
DILUPBiCG:  Solving for epsilon, Initial residual = 0.00561479, Final residual = 3.63431e-06, No Iterations 2
DILUPBiCG:  Solving for k, Initial residual = 0.0183504, Final residual = 4.22627e-05, No Iterations 2
DICPCG:  Solving for G, Initial residual = 0.00235658, Final residual = 0.000159151, No Iterations 10
BiCG:  Solving for T+T, Initial residual = 0.00139988, Final residual = 0.000135329, No Iterations 3
ExecutionTime = 0.11 s



Wall heat fluxes [W]
movingWall -0.228981 2.85974e-15 0.23173 0.00274855
left 0.385942 2.84425e-15 1.29527 1.68121
right -0.531968 2.45939e-18 -1.83074 -2.36271
bottom -0.300656 0 0.303744 0.00308809
frontAndBack 0 0 0 0
sum -0.675664 5.70645e-15 -3.80396e-07 -0.675665


Wall heat fluxes [W]
topAndBottom 0 0 0 0
left 2.84012 0 0 2.84012
right -2.40592 0 0 -2.40592
frontAndBack 0 0 0 0
sum 0.434202 0 0 0.434202

Time = 50

DILUPBiCG:  Solving for Ux, Initial residual = 0.00690814, Final residual = 5.65548e-05, No Iterations 1
DILUPBiCG:  Solving for Uy, Initial residual = 0.0102439, Final residual = 9.21301e-05, No Iterations 1
DICPCG:  Solving for p_rgh, Initial residual = 0.0162727, Final residual = 9.09699e-05, No Iterations 6
time step continuity errors : sum local = 0.000444779, global = 3.27961e-16, cumulative = 8.74601e-16
DILUPBiCG:  Solving for epsilon, Initial residual = 0.005365, Final residual = 3.43778e-06, No Iterations 2
DILUPBiCG:  Solving for k, Initial residual = 0.0172743, Final residual = 3.91816e-05, No Iterations 2
DICPCG:  Solving for G, Initial residual = 0.00181001, Final residual = 7.86394e-05, No Iterations 11
BiCG:  Solving for T+T, Initial residual = 0.00143456, Final residual = 0.000127767, No Iterations 1
ExecutionTime = 0.12 s



Wall heat fluxes [W]
movingWall -0.226736 1.39031e-15 0.229317 0.00258085
left 0.390319 5.2029e-15 1.29835 1.68867
right -0.529353 6.08551e-15 -1.82832 -2.35767
bottom -0.297697 0 0.300654 0.00295686
frontAndBack 0 0 0 0
sum -0.663468 1.26787e-14 -2.47244e-09 -0.663468


Wall heat fluxes [W]
topAndBottom 0 0 0 0
left 2.36695 0 0 2.36695
right -2.40485 0 0 -2.40485
frontAndBack 0 0 0 0
sum -0.0378921 0 0 -0.0378921

Time = 51

DILUPBiCG:  Solving for Ux, Initial residual = 0.00618638, Final residual = 5.27187e-05, No Iterations 1
DILUPBiCG:  Solving for Uy, Initial residual = 0.010055, Final residual = 9.40867e-05, No Iterations 1
DICPCG:  Solving for p_rgh, Initial residual = 0.0162191, Final residual = 6.57497e-05, No Iterations 11
time step continuity errors : sum local = 0.000212202, global = 1.6537e-16, cumulative = 1.03997e-15
DILUPBiCG:  Solving for epsilon, Initial residual = 0.00511078, Final residual = 3.22221e-06, No Iterations 2
DILUPBiCG:  Solving for k, Initial residual = 0.0162863, Final residual = 3.70087e-05, No Iterations 2
DICPCG:  Solving for G, Initial residual = 0.00272658, Final residual = 0.000250756, No Iterations 12
BiCG:  Solving for T+T, Initial residual = 0.00136061, Final residual = 0.000123793, No Iterations 3
ExecutionTime = 0.12 s



Wall heat fluxes [W]
movingWall -0.225447 0 0.229001 0.00355429
left 0.39473 -5.13353e-15 1.30317 1.6979
right -0.525464 1.56456e-14 -1.83176 -2.35722
bottom -0.295785 0 0.299592 0.00380617
frontAndBack 0 0 0 0
sum -0.651967 1.05121e-14 2.91409e-08 -0.651967


Wall heat fluxes [W]
topAndBottom 0 0 0 0
left 2.76872 0 0 2.76872
right -2.39317 0 0 -2.39317
frontAndBack 0 0 0 0
sum 0.37555 0 0 0.37555

Time = 52

DILUPBiCG:  Solving for Ux, Initial residual = 0.00678601, Final residual = 5.47526e-05, No Iterations 1
DILUPBiCG:  Solving for Uy, Initial residual = 0.00863407, Final residual = 5.27938e-06, No Iterations 2
DICPCG:  Solving for p_rgh, Initial residual = 0.014855, Final residual = 0.000115313, No Iterations 6
time step continuity errors : sum local = 0.000558689, global = 2.24993e-17, cumulative = 1.06247e-15
DILUPBiCG:  Solving for epsilon, Initial residual = 0.00486075, Final residual = 3.01323e-06, No Iterations 2
DILUPBiCG:  Solving for k, Initial residual = 0.0153875, Final residual = 3.56331e-05, No Iterations 2
DICPCG:  Solving for G, Initial residual = 0.00222442, Final residual = 5.56981e-05, No Iterations 10
BiCG:  Solving for T+T, Initial residual = 0.00139156, Final residual = 0.000119534, No Iterations 1
ExecutionTime = 0.12 s



Wall heat fluxes [W]
movingWall -0.22309 4.90964e-15 0.225601 0.00251074
left 0.399246 2.77488e-16 1.30687 1.70611
right -0.522688 -3.91463e-15 -1.82816 -2.35085
bottom -0.293187 0 0.295689 0.00250204
frontAndBack 0 0 0 0
sum -0.639719 1.2725e-15 1.20865e-07 -0.639719


Wall heat fluxes [W]
topAndBottom 0 0 0 0
left 2.36065 0 0 2.36065
right -2.39215 0 0 -2.39215
frontAndBack 0 0 0 0
sum -0.0315044 0 0 -0.0315044

Time = 53

DILUPBiCG:  Solving for Ux, Initial residual = 0.00615179, Final residual = 5.16845e-05, No Iterations 1
DILUPBiCG:  Solving for Uy, Initial residual = 0.0096532, Final residual = 9.23891e-05, No Iterations 1
DICPCG:  Solving for p_rgh, Initial residual = 0.0148109, Final residual = 7.37299e-05, No Iterations 11
time step continuity errors : sum local = 0.000239141, global = -2.14405e-16, cumulative = 8.48065e-16
DILUPBiCG:  Solving for epsilon, Initial residual = 0.00460582, Final residual = 2.80671e-06, No Iterations 2
DILUPBiCG:  Solving for k, Initial residual = 0.0145978, Final residual = 3.48672e-05, No Iterations 2
DICPCG:  Solving for G, Initial residual = 0.00241421, Final residual = 0.000228589, No Iterations 12
BiCG:  Solving for T+T, Initial residual = 0.0013182, Final residual = 0.000130479, No Iterations 1
ExecutionTime = 0.12 s



Wall heat fluxes [W]
movingWall -0.221635 7.25418e-16 0.224888 0.00325275
left 0.403821 -9.71208e-16 1.31115 1.71497
right -0.51879 -1.08735e-14 -1.83103 -2.34982
bottom -0.291676 0 0.294994 0.00331748
frontAndBack 0 0 0 0
sum -0.62828 -1.11193e-14 1.70275e-08 -0.62828


Wall heat fluxes [W]
topAndBottom 0 0 0 0
left 2.37898 0 0 2.37898
right -2.3911 0 0 -2.3911
frontAndBack 0 0 0 0
sum -0.0121234 0 0 -0.0121234

Time = 54

DILUPBiCG:  Solving for Ux, Initial residual = 0.00665236, Final residual = 5.44198e-05, No Iterations 1
DILUPBiCG:  Solving for Uy, Initial residual = 0.00851905, Final residual = 9.76797e-07, No Iterations 2
DICPCG:  Solving for p_rgh, Initial residual = 0.0143703, Final residual = 0.000125113, No Iterations 6
time step continuity errors : sum local = 0.000613422, global = 4.06311e-16, cumulative = 1.25438e-15
DILUPBiCG:  Solving for epsilon, Initial residual = 0.00434581, Final residual = 2.62634e-06, No Iterations 2
DILUPBiCG:  Solving for k, Initial residual = 0.0137706, Final residual = 3.41676e-05, No Iterations 2
DICPCG:  Solving for G, Initial residual = 0.00199029, Final residual = 6.8836e-05, No Iterations 11
BiCG:  Solving for T+T, Initial residual = 0.00131031, Final residual = 4.92772e-05, No Iterations 4
ExecutionTime = 0.12 s



Wall heat fluxes [W]
movingWall -0.219176 -7.03274e-16 0.221701 0.00252491
left 0.4085 2.56676e-15 1.31446 1.72296
right -0.515083 1.78308e-14 -1.82784 -2.34292
bottom -0.289448 0 0.291677 0.00222925
frontAndBack 0 0 0 0
sum -0.615207 1.96942e-14 -7.6089e-08 -0.615207


Wall heat fluxes [W]
topAndBottom 0 0 0 0
left 2.81626 0 0 2.81626
right -2.38019 0 0 -2.38019
frontAndBack 0 0 0 0
sum 0.436062 0 0 0.436062

Time = 55

DILUPBiCG:  Solving for Ux, Initial residual = 0.00653284, Final residual = 5.44627e-05, No Iterations 1
DILUPBiCG:  Solving for Uy, Initial residual = 0.00903124, Final residual = 9.88457e-07, No Iterations 2
DICPCG:  Solving for p_rgh, Initial residual = 0.0132859, Final residual = 7.90381e-05, No Iterations 11
time step continuity errors : sum local = 0.000256321, global = 2.96462e-17, cumulative = 1.28402e-15
DILUPBiCG:  Solving for epsilon, Initial residual = 0.0040885, Final residual = 2.47284e-06, No Iterations 2
DILUPBiCG:  Solving for k, Initial residual = 0.0129867, Final residual = 3.36995e-05, No Iterations 2
DICPCG:  Solving for G, Initial residual = 0.00143882, Final residual = 0.000120559, No Iterations 10
BiCG:  Solving for T+T, Initial residual = 0.00131366, Final residual = 0.000119592, No Iterations 1
ExecutionTime = 0.13 s



Wall heat fluxes [W]
movingWall -0.216733 3.48181e-16 0.219174 0.00244133
left 0.413169 -1.94242e-15 1.31697 1.73014
right -0.512716 2.60983e-15 -1.82589 -2.3386
bottom -0.287533 0 0.289738 0.0022054
frontAndBack 0 0 0 0
sum -0.603812 1.01559e-15 -1.83972e-07 -0.603812


Wall heat fluxes [W]
topAndBottom 0 0 0 0
left 2.33536 0 0 2.33536
right -2.37909 0 0 -2.37909
frontAndBack 0 0 0 0
sum -0.0437334 0 0 -0.0437334

Time = 56

DILUPBiCG:  Solving for Ux, Initial residual = 0.00568649, Final residual = 4.77009e-05, No Iterations 1
DILUPBiCG:  Solving for Uy, Initial residual = 0.00874197, Final residual = 8.2355e-05, No Iterations 1
DICPCG:  Solving for p_rgh, Initial residual = 0.0126221, Final residual = 5.92274e-05, No Iterations 11
time step continuity errors : sum local = 0.000193074, global = 1.45584e-16, cumulative = 1.42961e-15
DILUPBiCG:  Solving for epsilon, Initial residual = 0.00383902, Final residual = 2.3015e-06, No Iterations 2
DILUPBiCG:  Solving for k, Initial residual = 0.0122168, Final residual = 3.3457e-05, No Iterations 2
DICPCG:  Solving for G, Initial residual = 0.00250659, Final residual = 0.000243285, No Iterations 12
BiCG:  Solving for T+T, Initial residual = 0.00126808, Final residual = 0.00012563, No Iterations 1
ExecutionTime = 0.13 s



Wall heat fluxes [W]
movingWall -0.215362 1.77124e-15 0.218682 0.00331993
left 0.417963 -1.80367e-15 1.32134 1.7393
right -0.509057 7.83259e-15 -1.82973 -2.33879
bottom -0.28666 0 0.289716 0.00305612
frontAndBack 0 0 0 0
sum -0.593117 7.80015e-15 -9.38374e-09 -0.593117


Wall heat fluxes [W]
topAndBottom 0 0 0 0
left 2.37536 0 0 2.37536
right -2.3779 0 0 -2.3779
frontAndBack 0 0 0 0
sum -0.00254552 0 0 -0.00254552

Time = 57

DILUPBiCG:  Solving for Ux, Initial residual = 0.00637016, Final residual = 5.29336e-05, No Iterations 1
DILUPBiCG:  Solving for Uy, Initial residual = 0.00739813, Final residual = 9.76007e-07, No Iterations 2
DICPCG:  Solving for p_rgh, Initial residual = 0.0123701, Final residual = 0.000104617, No Iterations 6
time step continuity errors : sum local = 0.000508445, global = -2.75286e-17, cumulative = 1.40208e-15
DILUPBiCG:  Solving for epsilon, Initial residual = 0.00359524, Final residual = 2.15237e-06, No Iterations 2
DILUPBiCG:  Solving for k, Initial residual = 0.0114731, Final residual = 3.31274e-05, No Iterations 2
DICPCG:  Solving for G, Initial residual = 0.0019478, Final residual = 5.5164e-05, No Iterations 11
BiCG:  Solving for T+T, Initial residual = 0.00125474, Final residual = 4.71558e-05, No Iterations 4
ExecutionTime = 0.13 s



Wall heat fluxes [W]
movingWall -0.212796 1.76678e-15 0.215204 0.00240823
left 0.422784 1.2487e-15 1.32449 1.74727
right -0.505698 -5.65619e-15 -1.82646 -2.33216
bottom -0.284862 0 0.286764 0.00190214
frontAndBack 0 0 0 0
sum -0.580572 -2.64071e-15 -1.16802e-07 -0.580572


Wall heat fluxes [W]
topAndBottom 0 0 0 0
left 2.77432 0 0 2.77432
right -2.367 0 0 -2.367
frontAndBack 0 0 0 0
sum 0.407328 0 0 0.407328

Time = 58

DILUPBiCG:  Solving for Ux, Initial residual = 0.00618886, Final residual = 5.22064e-05, No Iterations 1
DILUPBiCG:  Solving for Uy, Initial residual = 0.00838822, Final residual = 1.29145e-06, No Iterations 2
DICPCG:  Solving for p_rgh, Initial residual = 0.0120601, Final residual = 6.89652e-05, No Iterations 11
time step continuity errors : sum local = 0.00022354, global = -2.34787e-16, cumulative = 1.16729e-15
DILUPBiCG:  Solving for epsilon, Initial residual = 0.00336828, Final residual = 2.02233e-06, No Iterations 2
DILUPBiCG:  Solving for k, Initial residual = 0.0107873, Final residual = 3.30695e-05, No Iterations 2
DICPCG:  Solving for G, Initial residual = 0.00132577, Final residual = 5.81536e-05, No Iterations 11
BiCG:  Solving for T+T, Initial residual = 0.00125563, Final residual = 0.000113359, No Iterations 1
ExecutionTime = 0.13 s



Wall heat fluxes [W]
movingWall -0.210336 -2.45422e-15 0.212722 0.0023863
left 0.427587 -3.4686e-16 1.32681 1.7544
right -0.503599 -1.04504e-14 -1.82482 -2.32842
bottom -0.283343 0 0.285289 0.00194591
frontAndBack 0 0 0 0
sum -0.569691 -1.32515e-14 -5.53768e-08 -0.569691


Wall heat fluxes [W]
topAndBottom 0 0 0 0
left 2.32511 0 0 2.32511
right -2.366 0 0 -2.366
frontAndBack 0 0 0 0
sum -0.0408948 0 0 -0.0408948

Time = 59

DILUPBiCG:  Solving for Ux, Initial residual = 0.00537592, Final residual = 4.56131e-05, No Iterations 1
DILUPBiCG:  Solving for Uy, Initial residual = 0.00805003, Final residual = 1.61885e-06, No Iterations 2
DICPCG:  Solving for p_rgh, Initial residual = 0.0114544, Final residual = 4.76149e-05, No Iterations 11
time step continuity errors : sum local = 0.00015072, global = -4.18752e-16, cumulative = 7.48539e-16
DILUPBiCG:  Solving for epsilon, Initial residual = 0.00319194, Final residual = 1.89016e-06, No Iterations 2
DILUPBiCG:  Solving for k, Initial residual = 0.0101792, Final residual = 3.32683e-05, No Iterations 2
DICPCG:  Solving for G, Initial residual = 0.00230275, Final residual = 0.000225673, No Iterations 12
BiCG:  Solving for T+T, Initial residual = 0.00121117, Final residual = 0.000118649, No Iterations 1
ExecutionTime = 0.13 s



Wall heat fluxes [W]
movingWall -0.208867 -4.22558e-15 0.212051 0.00318429
left 0.432469 -6.03536e-15 1.33089 1.76336
right -0.500325 -6.09685e-15 -1.82843 -2.32876
bottom -0.282722 0 0.285493 0.00277125
frontAndBack 0 0 0 0
sum -0.559445 -1.63578e-14 -2.17792e-08 -0.559445


Wall heat fluxes [W]
topAndBottom 0 0 0 0
left 2.36253 0 0 2.36253
right -2.36492 0 0 -2.36492
frontAndBack 0 0 0 0
sum -0.00239486 0 0 -0.00239486

Time = 60

DILUPBiCG:  Solving for Ux, Initial residual = 0.00596232, Final residual = 5.02929e-05, No Iterations 1
DILUPBiCG:  Solving for Uy, Initial residual = 0.00677855, Final residual = 1.12567e-06, No Iterations 2
DICPCG:  Solving for p_rgh, Initial residual = 0.0113013, Final residual = 9.82954e-05, No Iterations 6
time step continuity errors : sum local = 0.00047086, global = 1.92171e-16, cumulative = 9.4071e-16
DILUPBiCG:  Solving for epsilon, Initial residual = 0.00303954, Final residual = 1.78082e-06, No Iterations 2
DILUPBiCG:  Solving for k, Initial residual = 0.00961744, Final residual = 3.32829e-05, No Iterations 2
DICPCG:  Solving for G, Initial residual = 0.00181936, Final residual = 6.84652e-05, No Iterations 11
BiCG:  Solving for T+T, Initial residual = 0.00119731, Final residual = 4.35295e-05, No Iterations 4
ExecutionTime = 0.14 s



Wall heat fluxes [W]
movingWall -0.206309 2.47582e-15 0.208636 0.0023268
left 0.437326 2.08116e-15 1.33383 1.77116
right -0.497352 2.61212e-15 -1.82537 -2.32272
bottom -0.281172 0 0.2829 0.00172816
frontAndBack 0 0 0 0
sum -0.547507 7.1691e-15 -9.2045e-08 -0.547507


Wall heat fluxes [W]
topAndBottom 0 0 0 0
left 2.7278 0 0 2.7278
right -2.35487 0 0 -2.35487
frontAndBack 0 0 0 0
sum 0.372924 0 0 0.372924

Time = 61

DILUPBiCG:  Solving for Ux, Initial residual = 0.00573569, Final residual = 4.9139e-05, No Iterations 1
DILUPBiCG:  Solving for Uy, Initial residual = 0.00774196, Final residual = 2.80857e-06, No Iterations 2
DICPCG:  Solving for p_rgh, Initial residual = 0.011132, Final residual = 4.63596e-05, No Iterations 11
time step continuity errors : sum local = 0.00014607, global = -2.51463e-17, cumulative = 9.15563e-16
DILUPBiCG:  Solving for epsilon, Initial residual = 0.00289352, Final residual = 1.68909e-06, No Iterations 2
DILUPBiCG:  Solving for k, Initial residual = 0.00910259, Final residual = 3.34603e-05, No Iterations 2
DICPCG:  Solving for G, Initial residual = 0.00125801, Final residual = 9.29231e-05, No Iterations 11
BiCG:  Solving for T+T, Initial residual = 0.00119594, Final residual = 0.000106309, No Iterations 1
ExecutionTime = 0.14 s



Wall heat fluxes [W]
movingWall -0.203874 -7.23355e-16 0.206177 0.00230331
left 0.442147 -3.4686e-16 1.33601 1.77816
[...]
right -0.376121 -1.27322e-14 -1.78867 -2.16479
bottom -0.201649 0 0.201649 6.10281e-12
frontAndBack 0 0 0 0
sum -1.5763e-09 -1.97181e-14 1.77303e-13 -1.57614e-09


Wall heat fluxes [W]
topAndBottom 0 0 0 0
left 2.16479 0 0 2.16479
right -2.16479 0 0 -2.16479
frontAndBack 0 0 0 0
sum 8.6756e-10 0 0 8.6756e-10

Time = 986

DILUPBiCG:  Solving for Ux, Initial residual = 1.70505e-11, Final residual = 3.6122e-15, No Iterations 2
DILUPBiCG:  Solving for Uy, Initial residual = 2.27264e-11, Final residual = 1.29368e-14, No Iterations 2
DICPCG:  Solving for p_rgh, Initial residual = 3.55852e-11, Final residual = 2.32296e-13, No Iterations 5
time step continuity errors : sum local = 1.13727e-12, global = 4.18223e-17, cumulative = 5.92892e-15
DILUPBiCG:  Solving for epsilon, Initial residual = 1.60213e-11, Final residual = 4.80064e-14, No Iterations 2
DILUPBiCG:  Solving for k, Initial residual = 3.2493e-11, Final residual = 7.16138e-14, No Iterations 2
DICPCG:  Solving for G, Initial residual = 6.28614e-12, Final residual = 2.35463e-13, No Iterations 11
BiCG:  Solving for T+T, Initial residual = 4.22398e-12, Final residual = 4.12245e-13, No Iterations 1
ExecutionTime = 2.04 s



Wall heat fluxes [W]
movingWall -0.0860106 -9.5064e-17 0.0860106 8.9663e-12
left 0.66378 1.38744e-15 1.50101 2.16479
right -0.376121 2.63329e-15 -1.78867 -2.16479
bottom -0.201649 0 0.201649 7.02394e-12
frontAndBack 0 0 0 0
sum -1.54404e-09 3.92566e-15 3.07671e-13 -1.54373e-09


Wall heat fluxes [W]
topAndBottom 0 0 0 0
left 2.16479 0 0 2.16479
right -2.16479 0 0 -2.16479
frontAndBack 0 0 0 0
sum -1.07987e-10 0 0 -1.07987e-10

Time = 987

DILUPBiCG:  Solving for Ux, Initial residual = 1.57029e-11, Final residual = 3.49876e-15, No Iterations 2
DILUPBiCG:  Solving for Uy, Initial residual = 2.15646e-11, Final residual = 8.83552e-14, No Iterations 2
DICPCG:  Solving for p_rgh, Initial residual = 3.45927e-11, Final residual = 2.89834e-13, No Iterations 5
time step continuity errors : sum local = 1.56554e-12, global = 5.24102e-17, cumulative = 5.98133e-15
DILUPBiCG:  Solving for epsilon, Initial residual = 1.57176e-11, Final residual = 4.81626e-14, No Iterations 2
DILUPBiCG:  Solving for k, Initial residual = 3.19092e-11, Final residual = 6.94678e-14, No Iterations 2
DICPCG:  Solving for G, Initial residual = 8.12248e-12, Final residual = 6.59173e-13, No Iterations 12
BiCG:  Solving for T+T, Initial residual = 4.06077e-12, Final residual = 4.00383e-13, No Iterations 2
ExecutionTime = 2.04 s



Wall heat fluxes [W]
movingWall -0.0860106 -1.02599e-15 0.0860106 1.01542e-11
left 0.66378 9.71208e-16 1.50101 2.16479
right -0.376121 2.19448e-15 -1.78867 -2.16479
bottom -0.201649 0 0.201649 8.41838e-12
frontAndBack 0 0 0 0
sum -1.51261e-09 2.1397e-15 3.17912e-13 -1.51229e-09


Wall heat fluxes [W]
topAndBottom 0 0 0 0
left 2.16479 0 0 2.16479
right -2.16479 0 0 -2.16479
frontAndBack 0 0 0 0
sum 2.74092e-10 0 0 2.74092e-10

Time = 988

DILUPBiCG:  Solving for Ux, Initial residual = 1.69431e-11, Final residual = 3.4136e-15, No Iterations 2
DILUPBiCG:  Solving for Uy, Initial residual = 1.95353e-11, Final residual = 8.91364e-15, No Iterations 2
DICPCG:  Solving for p_rgh, Initial residual = 3.45295e-11, Final residual = 2.74277e-13, No Iterations 10
time step continuity errors : sum local = 9.85885e-13, global = -3.25049e-16, cumulative = 5.65628e-15
DILUPBiCG:  Solving for epsilon, Initial residual = 1.53805e-11, Final residual = 4.57208e-14, No Iterations 2
DILUPBiCG:  Solving for k, Initial residual = 3.11099e-11, Final residual = 6.86834e-14, No Iterations 2
DICPCG:  Solving for G, Initial residual = 6.46251e-12, Final residual = 2.48665e-13, No Iterations 11
BiCG:  Solving for T+T, Initial residual = 4.15923e-12, Final residual = 1.21035e-13, No Iterations 4
ExecutionTime = 2.05 s



Wall heat fluxes [W]
movingWall -0.0860106 6.98595e-16 0.0860106 7.90815e-12
left 0.66378 -6.24348e-15 1.50101 2.16479
right -0.376121 -7.9016e-15 -1.78867 -2.16479
bottom -0.201649 0 0.201649 5.80025e-12
frontAndBack 0 0 0 0
sum -1.47872e-09 -1.34465e-14 6.65218e-13 -1.47807e-09


Wall heat fluxes [W]
topAndBottom 0 0 0 0
left 2.16479 0 0 2.16479
right -2.16479 0 0 -2.16479
frontAndBack 0 0 0 0
sum 8.14582e-10 0 0 8.14582e-10

Time = 989

DILUPBiCG:  Solving for Ux, Initial residual = 1.59938e-11, Final residual = 3.38826e-15, No Iterations 2
DILUPBiCG:  Solving for Uy, Initial residual = 2.12617e-11, Final residual = 1.26668e-14, No Iterations 2
DICPCG:  Solving for p_rgh, Initial residual = 3.33623e-11, Final residual = 2.17778e-13, No Iterations 5
time step continuity errors : sum local = 1.06629e-12, global = -2.41404e-16, cumulative = 5.41487e-15
DILUPBiCG:  Solving for epsilon, Initial residual = 1.50286e-11, Final residual = 4.50331e-14, No Iterations 2
DILUPBiCG:  Solving for k, Initial residual = 3.04791e-11, Final residual = 6.71796e-14, No Iterations 2
DICPCG:  Solving for G, Initial residual = 5.67243e-12, Final residual = 3.20237e-13, No Iterations 11
BiCG:  Solving for T+T, Initial residual = 3.96382e-12, Final residual = 3.87632e-13, No Iterations 1
ExecutionTime = 2.05 s



Wall heat fluxes [W]
movingWall -0.0860106 -3.28777e-15 0.0860106 8.3198e-12
left 0.66378 -5.54976e-15 1.50101 2.16479
right -0.376121 -1.75478e-15 -1.78867 -2.16479
bottom -0.201649 0 0.201649 6.48243e-12
frontAndBack 0 0 0 0
sum -1.44829e-09 -1.05923e-14 2.86438e-14 -1.44827e-09


Wall heat fluxes [W]
topAndBottom 0 0 0 0
left 2.16479 0 0 2.16479
right -2.16479 0 0 -2.16479
frontAndBack 0 0 0 0
sum -1.01677e-10 0 0 -1.01677e-10

Time = 990

DILUPBiCG:  Solving for Ux, Initial residual = 1.47286e-11, Final residual = 3.28218e-15, No Iterations 2
DILUPBiCG:  Solving for Uy, Initial residual = 2.03237e-11, Final residual = 5.21568e-14, No Iterations 2
DICPCG:  Solving for p_rgh, Initial residual = 3.24727e-11, Final residual = 2.71774e-13, No Iterations 5
time step continuity errors : sum local = 1.46729e-12, global = -3.33519e-17, cumulative = 5.38152e-15
DILUPBiCG:  Solving for epsilon, Initial residual = 1.47433e-11, Final residual = 4.51916e-14, No Iterations 2
DILUPBiCG:  Solving for k, Initial residual = 2.99317e-11, Final residual = 6.51626e-14, No Iterations 2
DICPCG:  Solving for G, Initial residual = 7.53655e-12, Final residual = 6.19887e-13, No Iterations 12
BiCG:  Solving for T+T, Initial residual = 3.81011e-12, Final residual = 3.75903e-13, No Iterations 2
ExecutionTime = 2.05 s



Wall heat fluxes [W]
movingWall -0.0860106 -3.374e-15 0.0860106 9.59013e-12
left 0.66378 5.54976e-15 1.50101 2.16479
right -0.376121 -7.46335e-15 -1.78867 -2.16479
bottom -0.201649 0 0.201649 7.98062e-12
frontAndBack 0 0 0 0
sum -1.41894e-09 -5.2876e-15 5.9816e-13 -1.41835e-09


Wall heat fluxes [W]
topAndBottom 0 0 0 0
left 2.16479 0 0 2.16479
right -2.16479 0 0 -2.16479
frontAndBack 0 0 0 0
sum 2.5713e-10 0 0 2.5713e-10

Time = 991

DILUPBiCG:  Solving for Ux, Initial residual = 1.58938e-11, Final residual = 3.20194e-15, No Iterations 2
DILUPBiCG:  Solving for Uy, Initial residual = 1.82498e-11, Final residual = 8.02963e-15, No Iterations 2
DICPCG:  Solving for p_rgh, Initial residual = 3.23813e-11, Final residual = 2.56517e-13, No Iterations 10
time step continuity errors : sum local = 9.2119e-13, global = 8.68209e-17, cumulative = 5.46834e-15
DILUPBiCG:  Solving for epsilon, Initial residual = 1.44277e-11, Final residual = 4.28806e-14, No Iterations 2
DILUPBiCG:  Solving for k, Initial residual = 2.91818e-11, Final residual = 6.4425e-14, No Iterations 2
DICPCG:  Solving for G, Initial residual = 6.24466e-12, Final residual = 2.83796e-13, No Iterations 11
BiCG:  Solving for T+T, Initial residual = 3.90154e-12, Final residual = 1.13401e-13, No Iterations 4
ExecutionTime = 2.05 s



Wall heat fluxes [W]
movingWall -0.0860106 4.54036e-15 0.0860106 7.46241e-12
left 0.66378 2.91362e-15 1.50101 2.16479
right -0.376121 -5.70935e-15 -1.78867 -2.16479
bottom -0.201649 0 0.201649 5.47468e-12
frontAndBack 0 0 0 0
sum -1.38721e-09 1.74464e-15 1.20343e-12 -1.38601e-09


Wall heat fluxes [W]
topAndBottom 0 0 0 0
left 2.16479 0 0 2.16479
right -2.16479 0 0 -2.16479
frontAndBack 0 0 0 0
sum 7.63889e-10 0 0 7.63889e-10

Time = 992

DILUPBiCG:  Solving for Ux, Initial residual = 1.50028e-11, Final residual = 3.17794e-15, No Iterations 2
DILUPBiCG:  Solving for Uy, Initial residual = 1.99046e-11, Final residual = 1.22855e-14, No Iterations 2
DICPCG:  Solving for p_rgh, Initial residual = 3.12805e-11, Final residual = 2.04201e-13, No Iterations 5
time step continuity errors : sum local = 9.99478e-13, global = -1.17526e-16, cumulative = 5.35082e-15
DILUPBiCG:  Solving for epsilon, Initial residual = 1.4097e-11, Final residual = 4.22367e-14, No Iterations 2
DILUPBiCG:  Solving for k, Initial residual = 2.85895e-11, Final residual = 6.302e-14, No Iterations 2
DICPCG:  Solving for G, Initial residual = 5.4408e-12, Final residual = 2.1963e-13, No Iterations 11
BiCG:  Solving for T+T, Initial residual = 3.71921e-12, Final residual = 3.64261e-13, No Iterations 1
ExecutionTime = 2.05 s



Wall heat fluxes [W]
movingWall -0.0860106 1.40616e-16 0.0860106 7.82305e-12
left 0.66378 -4.43981e-15 1.50101 2.16479
right -0.376121 2.19652e-15 -1.78867 -2.16479
bottom -0.201649 0 0.201649 6.10206e-12
frontAndBack 0 0 0 0
sum -1.35869e-09 -2.10267e-15 7.26641e-13 -1.35797e-09


Wall heat fluxes [W]
topAndBottom 0 0 0 0
left 2.16479 0 0 2.16479
right -2.16479 0 0 -2.16479
frontAndBack 0 0 0 0
sum -9.52651e-11 0 0 -9.52651e-11

Time = 993

DILUPBiCG:  Solving for Ux, Initial residual = 1.38175e-11, Final residual = 3.07862e-15, No Iterations 2
DILUPBiCG:  Solving for Uy, Initial residual = 1.90562e-11, Final residual = 5.02534e-14, No Iterations 2
DICPCG:  Solving for p_rgh, Initial residual = 3.04493e-11, Final residual = 2.54689e-13, No Iterations 5
time step continuity errors : sum local = 1.37604e-12, global = -4.97632e-17, cumulative = 5.30105e-15
DILUPBiCG:  Solving for epsilon, Initial residual = 1.38291e-11, Final residual = 4.23913e-14, No Iterations 2
DILUPBiCG:  Solving for k, Initial residual = 2.80761e-11, Final residual = 6.1128e-14, No Iterations 2
DICPCG:  Solving for G, Initial residual = 7.22334e-12, Final residual = 6.00388e-13, No Iterations 12
BiCG:  Solving for T+T, Initial residual = 3.57449e-12, Final residual = 3.53447e-13, No Iterations 2
ExecutionTime = 2.06 s



Wall heat fluxes [W]
movingWall -0.0860106 3.79733e-15 0.0860106 8.98019e-12
left 0.66378 -1.2487e-15 1.50101 2.16479
right -0.376121 -5.26772e-15 -1.78867 -2.16479
bottom -0.201649 0 0.201649 7.45665e-12
frontAndBack 0 0 0 0
sum -1.33111e-09 -2.71909e-15 1.04577e-12 -1.33007e-09


Wall heat fluxes [W]
topAndBottom 0 0 0 0
left 2.16479 0 0 2.16479
right -2.16479 0 0 -2.16479
frontAndBack 0 0 0 0
sum 2.42032e-10 0 0 2.42032e-10

Time = 994

DILUPBiCG:  Solving for Ux, Initial residual = 1.49089e-11, Final residual = 3.0032e-15, No Iterations 2
DILUPBiCG:  Solving for Uy, Initial residual = 1.71504e-11, Final residual = 7.66804e-15, No Iterations 2
DICPCG:  Solving for p_rgh, Initial residual = 3.03789e-11, Final residual = 2.4098e-13, No Iterations 10
time step continuity errors : sum local = 8.6625e-13, global = 2.40346e-16, cumulative = 5.5414e-15
DILUPBiCG:  Solving for epsilon, Initial residual = 1.3533e-11, Final residual = 4.02286e-14, No Iterations 2
DILUPBiCG:  Solving for k, Initial residual = 2.73728e-11, Final residual = 6.04343e-14, No Iterations 2
DICPCG:  Solving for G, Initial residual = 5.78221e-12, Final residual = 2.30675e-13, No Iterations 11
BiCG:  Solving for T+T, Initial residual = 3.66072e-12, Final residual = 1.06019e-13, No Iterations 4
ExecutionTime = 2.06 s



Wall heat fluxes [W]
movingWall -0.0860106 4.13173e-16 0.0860106 6.83435e-12
left 0.66378 8.04715e-15 1.50101 2.16479
right -0.376121 -3.88203e-19 -1.78867 -2.16479
bottom -0.201649 0 0.201649 4.96111e-12
frontAndBack 0 0 0 0
sum -1.30105e-09 8.45994e-15 3.31235e-13 -1.30071e-09


Wall heat fluxes [W]
topAndBottom 0 0 0 0
left 2.16479 0 0 2.16479
right -2.16479 0 0 -2.16479
frontAndBack 0 0 0 0
sum 7.1531e-10 0 0 7.1531e-10

Time = 995

DILUPBiCG:  Solving for Ux, Initial residual = 1.40714e-11, Final residual = 2.98138e-15, No Iterations 2
DILUPBiCG:  Solving for Uy, Initial residual = 1.88404e-11, Final residual = 1.00077e-14, No Iterations 2
DICPCG:  Solving for p_rgh, Initial residual = 2.93923e-11, Final residual = 1.91738e-13, No Iterations 5
time step continuity errors : sum local = 9.38042e-13, global = -7.46448e-17, cumulative = 5.46675e-15
DILUPBiCG:  Solving for epsilon, Initial residual = 1.32233e-11, Final residual = 3.96422e-14, No Iterations 2
DILUPBiCG:  Solving for k, Initial residual = 2.68191e-11, Final residual = 5.91109e-14, No Iterations 2
DICPCG:  Solving for G, Initial residual = 5.11414e-12, Final residual = 1.90415e-13, No Iterations 11
BiCG:  Solving for T+T, Initial residual = 3.48741e-12, Final residual = 3.40999e-13, No Iterations 1
ExecutionTime = 2.06 s



Wall heat fluxes [W]
movingWall -0.0860106 6.46647e-16 0.0860106 7.36117e-12
left 0.66378 -1.38744e-16 1.50101 2.16479
right -0.376121 -3.51212e-15 -1.78867 -2.16479
bottom -0.201649 0 0.201649 5.7542e-12
frontAndBack 0 0 0 0
sum -1.27436e-09 -3.00422e-15 1.00336e-13 -1.27426e-09


Wall heat fluxes [W]
topAndBottom 0 0 0 0
left 2.16479 0 0 2.16479
right -2.16479 0 0 -2.16479
frontAndBack 0 0 0 0
sum -8.97966e-11 0 0 -8.97966e-11

Time = 996

DILUPBiCG:  Solving for Ux, Initial residual = 1.296e-11, Final residual = 2.88828e-15, No Iterations 2
DILUPBiCG:  Solving for Uy, Initial residual = 1.78361e-11, Final residual = 5.75908e-14, No Iterations 2
DICPCG:  Solving for p_rgh, Initial residual = 2.857e-11, Final residual = 2.39155e-13, No Iterations 5
time step continuity errors : sum local = 1.29136e-12, global = 2.69992e-17, cumulative = 5.49375e-15
DILUPBiCG:  Solving for epsilon, Initial residual = 1.29736e-11, Final residual = 3.97503e-14, No Iterations 2
DILUPBiCG:  Solving for k, Initial residual = 2.63383e-11, Final residual = 5.73298e-14, No Iterations 2
DICPCG:  Solving for G, Initial residual = 6.84594e-12, Final residual = 5.53398e-13, No Iterations 12
BiCG:  Solving for T+T, Initial residual = 3.35391e-12, Final residual = 3.30459e-13, No Iterations 2
ExecutionTime = 2.06 s



Wall heat fluxes [W]
movingWall -0.0860106 -9.23722e-16 0.0860106 8.42301e-12
left 0.66378 -7.90841e-15 1.50101 2.16479
right -0.376121 1.58055e-14 -1.78867 -2.16479
bottom -0.201649 0 0.201649 6.99488e-12
frontAndBack 0 0 0 0
sum -1.2485e-09 6.97333e-15 4.61825e-13 -1.24803e-09


Wall heat fluxes [W]
topAndBottom 0 0 0 0
left 2.16479 0 0 2.16479
right -2.16479 0 0 -2.16479
frontAndBack 0 0 0 0
sum 2.26378e-10 0 0 2.26378e-10

Time = 997

DILUPBiCG:  Solving for Ux, Initial residual = 1.39845e-11, Final residual = 2.81752e-15, No Iterations 2
DILUPBiCG:  Solving for Uy, Initial residual = 1.60737e-11, Final residual = 7.12747e-15, No Iterations 2
DICPCG:  Solving for p_rgh, Initial residual = 2.84953e-11, Final residual = 2.25519e-13, No Iterations 10
time step continuity errors : sum local = 8.1057e-13, global = 3.04402e-16, cumulative = 5.79816e-15
DILUPBiCG:  Solving for epsilon, Initial residual = 1.26956e-11, Final residual = 3.77191e-14, No Iterations 2
DILUPBiCG:  Solving for k, Initial residual = 2.56783e-11, Final residual = 5.66798e-14, No Iterations 2
DICPCG:  Solving for G, Initial residual = 5.68664e-12, Final residual = 2.19013e-13, No Iterations 11
BiCG:  Solving for T+T, Initial residual = 3.43306e-12, Final residual = 9.93175e-14, No Iterations 4
ExecutionTime = 2.06 s



Wall heat fluxes [W]
movingWall -0.0860106 1.58033e-15 0.0860106 6.42077e-12
left 0.66378 6.10474e-15 1.50101 2.16479
right -0.376121 2.63488e-15 -1.78867 -2.16479
bottom -0.201649 0 0.201649 4.66474e-12
frontAndBack 0 0 0 0
sum -1.22033e-09 1.03199e-14 -1.0747e-13 -1.22042e-09


Wall heat fluxes [W]
topAndBottom 0 0 0 0
left 2.16479 0 0 2.16479
right -2.16479 0 0 -2.16479
frontAndBack 0 0 0 0
sum 6.69369e-10 0 0 6.69369e-10

Time = 998

DILUPBiCG:  Solving for Ux, Initial residual = 1.32006e-11, Final residual = 2.79666e-15, No Iterations 2
DILUPBiCG:  Solving for Uy, Initial residual = 1.766e-11, Final residual = 9.49697e-15, No Iterations 2
DICPCG:  Solving for p_rgh, Initial residual = 2.75682e-11, Final residual = 1.79699e-13, No Iterations 5
time step continuity errors : sum local = 8.78651e-13, global = -2.8005e-16, cumulative = 5.51811e-15
DILUPBiCG:  Solving for epsilon, Initial residual = 1.24042e-11, Final residual = 3.71808e-14, No Iterations 2
DILUPBiCG:  Solving for k, Initial residual = 2.51576e-11, Final residual = 5.54479e-14, No Iterations 2
DICPCG:  Solving for G, Initial residual = 5.03127e-12, Final residual = 2.34495e-13, No Iterations 11
BiCG:  Solving for T+T, Initial residual = 3.27077e-12, Final residual = 3.19688e-13, No Iterations 1
ExecutionTime = 2.07 s



Wall heat fluxes [W]
movingWall -0.0860106 -7.40302e-16 0.0860106 6.98006e-12
left 0.66378 -1.04058e-14 1.50101 2.16479
right -0.376121 4.39138e-15 -1.78867 -2.16479
bottom -0.201649 0 0.201649 5.48009e-12
frontAndBack 0 0 0 0
sum -1.19542e-09 -6.75472e-15 2.9915e-13 -1.19513e-09


Wall heat fluxes [W]
topAndBottom 0 0 0 0
left 2.16479 0 0 2.16479
right -2.16479 0 0 -2.16479
frontAndBack 0 0 0 0
sum -8.36464e-11 0 0 -8.36464e-11

Time = 999

DILUPBiCG:  Solving for Ux, Initial residual = 1.21608e-11, Final residual = 2.70895e-15, No Iterations 2
DILUPBiCG:  Solving for Uy, Initial residual = 1.66501e-11, Final residual = 1.04023e-13, No Iterations 2
DICPCG:  Solving for p_rgh, Initial residual = 2.67752e-11, Final residual = 2.23979e-13, No Iterations 5
time step continuity errors : sum local = 1.20977e-12, global = -2.37699e-16, cumulative = 5.28041e-15
DILUPBiCG:  Solving for epsilon, Initial residual = 1.21695e-11, Final residual = 3.73036e-14, No Iterations 2
DILUPBiCG:  Solving for k, Initial residual = 2.47057e-11, Final residual = 5.37903e-14, No Iterations 2
DICPCG:  Solving for G, Initial residual = 6.50628e-12, Final residual = 5.13512e-13, No Iterations 12
BiCG:  Solving for T+T, Initial residual = 3.14434e-12, Final residual = 3.10187e-13, No Iterations 2
ExecutionTime = 2.07 s



Wall heat fluxes [W]
movingWall -0.0860106 -2.64155e-15 0.0860106 7.87009e-12
left 0.66378 -1.10995e-15 1.50101 2.16479
right -0.376121 -6.58496e-15 -1.78867 -2.16479
bottom -0.201649 0 0.201649 6.52553e-12
frontAndBack 0 0 0 0
sum -1.17111e-09 -1.03365e-14 4.1725e-13 -1.1707e-09


Wall heat fluxes [W]
topAndBottom 0 0 0 0
left 2.16479 0 0 2.16479
right -2.16479 0 0 -2.16479
frontAndBack 0 0 0 0
sum 2.12587e-10 0 0 2.12587e-10

Time = 1000

DILUPBiCG:  Solving for Ux, Initial residual = 1.31175e-11, Final residual = 2.64278e-15, No Iterations 2
DILUPBiCG:  Solving for Uy, Initial residual = 1.51143e-11, Final residual = 6.83923e-15, No Iterations 2
DICPCG:  Solving for p_rgh, Initial residual = 2.67319e-11, Final residual = 2.12231e-13, No Iterations 10
time step continuity errors : sum local = 7.62707e-13, global = 1.79995e-16, cumulative = 5.4604e-15
DILUPBiCG:  Solving for epsilon, Initial residual = 1.19081e-11, Final residual = 3.5402e-14, No Iterations 2
DILUPBiCG:  Solving for k, Initial residual = 2.40863e-11, Final residual = 5.31825e-14, No Iterations 2
DICPCG:  Solving for G, Initial residual = 5.58991e-12, Final residual = 1.99338e-13, No Iterations 11
BiCG:  Solving for T+T, Initial residual = 3.22048e-12, Final residual = 9.34108e-14, No Iterations 4
ExecutionTime = 2.07 s



Wall heat fluxes [W]
movingWall -0.0860106 -2.44435e-15 0.0860106 6.03131e-12
left 0.66378 7.49218e-15 1.50101 2.16479
right -0.376121 -1.14671e-18 -1.78867 -2.16479
bottom -0.201649 0 0.201649 4.39404e-12
frontAndBack 0 0 0 0
sum -1.14471e-09 5.04667e-15 -1.37113e-14 -1.14472e-09


Wall heat fluxes [W]
topAndBottom 0 0 0 0
left 2.16479 0 0 2.16479
right -2.16479 0 0 -2.16479
frontAndBack 0 0 0 0
sum 6.29318e-10 0 0 6.29318e-10

End

