/*---------------------------------------------------------------------------*\
| =========                 |                                                 |
| \\      /  F ield         | OpenFOAM Extend Project: Open source CFD        |
|  \\    /   O peration     | Version:  1.6-ext                               |
|   \\  /    A nd           | Web:      www.extend-project.de                 |
|    \\/     M anipulation  |                                                 |
\*---------------------------------------------------------------------------*/
Build  : 1.6-ext-8673d8aecf4d
Exec   : chipAirCoolingSimpleFoam
Date   : Oct 25 2011
Time   : 03:01:09
Host   : galerius
PID    : 16680
Case   : /home/henrus/projects/ChipAirCooling/run/twoCavities/conjugateContactCavity
nProcs : 1
SigFpe : Enabling floating point exception trapping (FOAM_SIGFPE).

// * * * * * * * * * * * * * * * * * * * * * * * * * * * * * * * * * * * * * //
Create time

Create mesh for time = 0


Reading g
Reading transportProperties

Calculating field g.h

Reading field p_rgh

Reading field U

Reading field T

Reading/calculating face flux field phi

Selecting incompressible transport model Newtonian
Selecting RAS turbulence model kEpsilon
kEpsilonCoeffs
{
    Cmu             0.09;
    C1              1.44;
    C2              1.92;
    alphaEps        0.76923;
    sigmaEps        1.3;
}

Reading field kappaEff

Creating radiation model

Selecting radiationModel P1
Selecting absorptionEmissionModel constantAbsorptionEmission
Selecting scatterModel constantScatter
Reading field Tsolid

Reading solid thermal properties
Selecting thermal model multiMaterialZones
Selecting thermal model constant
Selecting thermal model constant
Selecting thermal gap model constant
Reading solid diffusivity k


Starting time loop

--> FOAM Warning : 
    From function dlLibraryTable::open(const dictionary& dict, const word& libsEntry, const TablePtr tablePtr)
    in file lnInclude/dlLibraryTableTemplates.C at line 68
    library "libairbusMaterialModels.so" did not introduce any new entries

Time = 1

DILUPBiCG:  Solving for Ux, Initial residual = 1, Final residual = 0.00897023, No Iterations 1
DILUPBiCG:  Solving for Uy, Initial residual = 1, Final residual = 0.00987563, No Iterations 1
DICPCG:  Solving for p_rgh, Initial residual = 1, Final residual = 0.00291726, No Iterations 6
time step continuity errors : sum local = 0.00216844, global = -4.67853e-17, cumulative = -4.67853e-17
DILUPBiCG:  Solving for epsilon, Initial residual = 0.0778517, Final residual = 0.000142376, No Iterations 2
DILUPBiCG:  Solving for k, Initial residual = 1, Final residual = 0.00252941, No Iterations 2
DICPCG:  Solving for G, Initial residual = 1, Final residual = 0.0866965, No Iterations 12
Before T+T solve
BiCG:  Solving for T+T, Initial residual = 0.254374, Final residual = 0.0236733, No Iterations 3
Tres = -3.0924
TsRes = -18.3284
ExecutionTime = 0.01 s



Wall heat fluxes [W]
movingWall -0.78219 -1.95156e-15 -0.416973 -1.19916
left 0.0151623 0 0.139421 0.154583
right -0.0853728 0 0.139478 0.0541048
bottom -0.105297 0 0.138084 0.0327865
movingWall2 -0.301062 0 0.390389 0.0893276
left2 -0.160651 0 0.386493 0.225842
right2 -1.63153 -1.80088e-15 -1.1671 -2.79863
bottom2 -0.287487 0 0.390237 0.10275
frontAndBack 0 0 0 0
sum -3.33843 -3.75244e-15 2.42593e-05 -3.3384


Wall heat fluxes [W]
topAndBottom 0 0 0 0
left 0 0 0 0
right -18.3284 0 0 -18.3284
frontAndBack 0 0 0 0
sum -18.3284 0 0 -18.3284

Time = 2

DILUPBiCG:  Solving for Ux, Initial residual = 0.788373, Final residual = 0.0070435, No Iterations 1
DILUPBiCG:  Solving for Uy, Initial residual = 0.781533, Final residual = 0.00773807, No Iterations 1
DICPCG:  Solving for p_rgh, Initial residual = 0.667384, Final residual = 0.00541274, No Iterations 5
time step continuity errors : sum local = 0.0219618, global = 4.08958e-17, cumulative = -5.88953e-18
DILUPBiCG:  Solving for epsilon, Initial residual = 0.0209334, Final residual = 2.89439e-05, No Iterations 2
DILUPBiCG:  Solving for k, Initial residual = 0.65931, Final residual = 0.000851045, No Iterations 2
DICPCG:  Solving for G, Initial residual = 0.265023, Final residual = 0.0140517, No Iterations 12
Before T+T solve
BiCG:  Solving for T+T, Initial residual = 0.027742, Final residual = 0.00159581, No Iterations 5
Tres = -2.22908
TsRes = -6.89698
ExecutionTime = 0.01 s



Wall heat fluxes [W]
movingWall -0.45988 2.60209e-15 -0.352321 -0.812201
left 0.0153038 3.45505e-17 0.203782 0.219086
right -0.0765198 5.91418e-16 0.0135054 -0.0630144
bottom -0.104155 0 0.135033 0.0308778
movingWall2 -0.327069 5.99179e-16 0.389207 0.062138
left2 -0.139008 -8.18044e-18 0.226957 0.0879494
right2 -0.902453 -7.58264e-16 -0.970356 -1.87281
bottom2 -0.271487 0 0.354192 0.0827048
frontAndBack 0 0 0 0
sum -2.26527 3.06079e-15 -1.78713e-07 -2.26527


Wall heat fluxes [W]
topAndBottom 0 0 0 0
left 0 0 0 0
right -6.89698 0 0 -6.89698
frontAndBack 0 0 0 0
sum -6.89698 0 0 -6.89698

Time = 3

DILUPBiCG:  Solving for Ux, Initial residual = 0.244205, Final residual = 1.69821e-05, No Iterations 2
DILUPBiCG:  Solving for Uy, Initial residual = 0.324073, Final residual = 0.00246168, No Iterations 1
DICPCG:  Solving for p_rgh, Initial residual = 0.478702, Final residual = 0.00344239, No Iterations 6
time step continuity errors : sum local = 0.0098427, global = 5.25425e-17, cumulative = 4.6653e-17
DILUPBiCG:  Solving for epsilon, Initial residual = 0.0654936, Final residual = 4.31503e-05, No Iterations 2
DILUPBiCG:  Solving for k, Initial residual = 0.211144, Final residual = 0.000260958, No Iterations 2
DICPCG:  Solving for G, Initial residual = 0.0948015, Final residual = 0.00628234, No Iterations 12
Before T+T solve
BiCG:  Solving for T+T, Initial residual = 0.00904517, Final residual = 0.000866423, No Iterations 5
Tres = -2.04057
TsRes = -4.20587
ExecutionTime = 0.02 s



Wall heat fluxes [W]
movingWall -0.422471 7.80626e-15 -0.339648 -0.762119
left 0.0177222 6.28819e-16 0.216628 0.23435
right -0.0848179 -3.02775e-16 0.0387317 -0.0460862
bottom -0.0843228 0 0.0842886 -3.42342e-05
movingWall2 -0.320372 -2.48958e-15 0.330562 0.0101896
left2 -0.166384 -4.72458e-16 0.31778 0.151396
right2 -0.791442 -1.51653e-15 -0.89772 -1.68916
bottom2 -0.244276 0 0.249384 0.00510808
frontAndBack 0 0 0 0
sum -2.09636 3.65373e-15 6.39785e-06 -2.09636


Wall heat fluxes [W]
topAndBottom 0 0 0 0
left 0 0 0 0
right -4.20587 0 0 -4.20587
frontAndBack 0 0 0 0
sum -4.20587 0 0 -4.20587

Time = 4

DILUPBiCG:  Solving for Ux, Initial residual = 0.139073, Final residual = 9.7348e-06, No Iterations 2
DILUPBiCG:  Solving for Uy, Initial residual = 0.282827, Final residual = 0.0023153, No Iterations 1
DICPCG:  Solving for p_rgh, Initial residual = 0.227917, Final residual = 0.00203635, No Iterations 8
time step continuity errors : sum local = 0.00666018, global = 1.51407e-16, cumulative = 1.9806e-16
DILUPBiCG:  Solving for epsilon, Initial residual = 0.0923412, Final residual = 7.89529e-05, No Iterations 2
DILUPBiCG:  Solving for k, Initial residual = 0.125371, Final residual = 0.000146822, No Iterations 2
DICPCG:  Solving for G, Initial residual = 0.0420749, Final residual = 0.00370167, No Iterations 12
Before T+T solve
BiCG:  Solving for T+T, Initial residual = 0.00623761, Final residual = 0.000519, No Iterations 4
Tres = -1.99273
TsRes = -2.8362
ExecutionTime = 0.02 s



Wall heat fluxes [W]
movingWall -0.409998 2.60209e-15 -0.327737 -0.737735
left 0.0200181 -6.24348e-16 0.228419 0.248437
right -0.0765838 7.55539e-16 0.00304533 -0.0735384
bottom -0.090942 0 0.0962739 0.00533187
movingWall2 -0.329236 2.50153e-15 0.342226 0.0129903
left2 -0.156556 -7.96013e-16 0.252209 0.0956526
right2 -0.758333 7.58264e-15 -0.865753 -1.62409
bottom2 -0.261103 0 0.271319 0.0102164
frontAndBack 0 0 0 0
sum -2.06273 1.20214e-14 2.17912e-06 -2.06273


Wall heat fluxes [W]
topAndBottom 0 0 0 0
left 0 0 0 0
right -2.8362 0 0 -2.8362
frontAndBack 0 0 0 0
sum -2.8362 0 0 -2.8362

Time = 5

DILUPBiCG:  Solving for Ux, Initial residual = 0.094991, Final residual = 0.000787827, No Iterations 1
DILUPBiCG:  Solving for Uy, Initial residual = 0.184004, Final residual = 0.00139084, No Iterations 1
DICPCG:  Solving for p_rgh, Initial residual = 0.125383, Final residual = 0.000679169, No Iterations 13
time step continuity errors : sum local = 0.00178141, global = -1.29468e-16, cumulative = 6.85919e-17
DILUPBiCG:  Solving for epsilon, Initial residual = 0.0948456, Final residual = 9.32304e-05, No Iterations 2
DILUPBiCG:  Solving for k, Initial residual = 0.0944989, Final residual = 0.000107728, No Iterations 2
DICPCG:  Solving for G, Initial residual = 0.0169521, Final residual = 0.0011377, No Iterations 12
Before T+T solve
BiCG:  Solving for T+T, Initial residual = 0.00484029, Final residual = 0.000209226, No Iterations 4
Tres = -1.93767
TsRes = -2.16913
ExecutionTime = 0.02 s



Wall heat fluxes [W]
movingWall -0.403976 -6.50521e-15 -0.324816 -0.728792
left 0.0221412 -5.6148e-16 0.231361 0.253502
right -0.0745182 8.23585e-16 0.0049123 -0.0696059
bottom -0.0889985 0 0.0885426 -0.000455901
movingWall2 -0.322108 3.12579e-15 0.325722 0.00361387
left2 -0.159582 -2.85804e-18 0.269963 0.110381
right2 -0.744297 -7.58264e-15 -0.856081 -1.60038
bottom2 -0.262307 0 0.260396 -0.001911
frontAndBack 0 0 0 0
sum -2.03365 -1.07028e-14 6.44478e-07 -2.03364


Wall heat fluxes [W]
topAndBottom 0 0 0 0
left 0 0 0 0
right -2.16913 0 0 -2.16913
frontAndBack 0 0 0 0
sum -2.16913 0 0 -2.16913

Time = 6

DILUPBiCG:  Solving for Ux, Initial residual = 0.0721659, Final residual = 0.000518708, No Iterations 1
DILUPBiCG:  Solving for Uy, Initial residual = 0.11326, Final residual = 0.00085735, No Iterations 1
DICPCG:  Solving for p_rgh, Initial residual = 0.0833878, Final residual = 0.000600489, No Iterations 12
time step continuity errors : sum local = 0.00139417, global = 3.65283e-17, cumulative = 1.0512e-16
DILUPBiCG:  Solving for epsilon, Initial residual = 0.0802081, Final residual = 8.43218e-05, No Iterations 2
DILUPBiCG:  Solving for k, Initial residual = 0.0795501, Final residual = 0.000105032, No Iterations 2
DICPCG:  Solving for G, Initial residual = 0.0107906, Final residual = 0.000266409, No Iterations 13
Before T+T solve
BiCG:  Solving for T+T, Initial residual = 0.00417692, Final residual = 0.000274895, No Iterations 3
Tres = -1.91232
TsRes = -1.57659
ExecutionTime = 0.02 s



Wall heat fluxes [W]
movingWall -0.402899 -3.90313e-15 -0.321825 -0.724723
left 0.0242946 1.23569e-16 0.234314 0.258608
right -0.0691756 3.09029e-16 -0.00492131 -0.0740969
bottom -0.0909224 0 0.0924322 0.0015098
movingWall2 -0.321534 -6.21591e-16 0.325019 0.00348506
left2 -0.155759 7.95236e-16 0.253915 0.0981562
right2 -0.734403 6.06611e-15 -0.849624 -1.58403
bottom2 -0.267549 0 0.27069 0.00314044
frontAndBack 0 0 0 0
sum -2.01795 2.76923e-15 1.23754e-07 -2.01795


Wall heat fluxes [W]
topAndBottom 0 0 0 0
left 0 0 0 0
right -1.57659 0 0 -1.57659
frontAndBack 0 0 0 0
sum -1.57659 0 0 -1.57659

Time = 7

DILUPBiCG:  Solving for Ux, Initial residual = 0.0619945, Final residual = 0.000440732, No Iterations 1
DILUPBiCG:  Solving for Uy, Initial residual = 0.0803383, Final residual = 5.00076e-06, No Iterations 2
DICPCG:  Solving for p_rgh, Initial residual = 0.0783569, Final residual = 0.000626175, No Iterations 6
time step continuity errors : sum local = 0.00156903, global = -4.60078e-17, cumulative = 5.91124e-17
DILUPBiCG:  Solving for epsilon, Initial residual = 0.064233, Final residual = 6.84501e-05, No Iterations 2
DILUPBiCG:  Solving for k, Initial residual = 0.0711159, Final residual = 0.000175729, No Iterations 2
DICPCG:  Solving for G, Initial residual = 0.00478812, Final residual = 0.00037002, No Iterations 12
Before T+T solve
BiCG:  Solving for T+T, Initial residual = 0.00360161, Final residual = 0.000112065, No Iterations 3
Tres = -1.88594
TsRes = -1.17699
ExecutionTime = 0.03 s



Wall heat fluxes [W]
movingWall -0.404134 -1.30104e-15 -0.320186 -0.72432
left 0.0261622 -5.6148e-16 0.235945 0.262107
right -0.0664448 2.98328e-16 -0.00681893 -0.0732638
bottom -0.0901681 0 0.09106 0.000891932
movingWall2 -0.320163 -1.27862e-15 0.321702 0.00153855
left2 -0.155185 6.37238e-16 0.256199 0.101014
right2 -0.727705 -1.51653e-15 -0.845965 -1.57367
bottom2 -0.26621 0 0.268065 0.00185449
frontAndBack 0 0 0 0
sum -2.00385 -3.7221e-15 2.39314e-08 -2.00385


Wall heat fluxes [W]
topAndBottom 0 0 0 0
left 0 0 0 0
right -1.17699 0 0 -1.17699
frontAndBack 0 0 0 0
sum -1.17699 0 0 -1.17699

Time = 8

DILUPBiCG:  Solving for Ux, Initial residual = 0.0506111, Final residual = 0.00037211, No Iterations 1
DILUPBiCG:  Solving for Uy, Initial residual = 0.0662993, Final residual = 4.84118e-06, No Iterations 2
DICPCG:  Solving for p_rgh, Initial residual = 0.0847402, Final residual = 0.000737239, No Iterations 8
time step continuity errors : sum local = 0.00187463, global = 3.70991e-18, cumulative = 6.28223e-17
DILUPBiCG:  Solving for epsilon, Initial residual = 0.0511255, Final residual = 5.2028e-05, No Iterations 2
DILUPBiCG:  Solving for k, Initial residual = 0.0658291, Final residual = 0.000291443, No Iterations 2
DICPCG:  Solving for G, Initial residual = 0.00571417, Final residual = 0.000556561, No Iterations 12
Before T+T solve
BiCG:  Solving for T+T, Initial residual = 0.00322236, Final residual = 0.000300021, No Iterations 4
Tres = -1.95165
TsRes = -0.854124
ExecutionTime = 0.03 s



Wall heat fluxes [W]
movingWall -0.405152 -5.20417e-15 -0.318056 -0.723207
left 0.0274097 5.2029e-17 0.23806 0.26547
right -0.061684 5.98066e-16 -0.0114186 -0.0731025
bottom -0.0898939 0 0.0914141 0.00152026
movingWall2 -0.321267 1.24906e-15 0.322549 0.00128106
left2 -0.153079 1.65855e-16 0.25122 0.0981412
right2 -0.724421 2.27479e-15 -0.842058 -1.56648
bottom2 -0.265384 0 0.268289 0.00290557
frontAndBack 0 0 0 0
sum -1.99347 -8.64369e-16 -1.36283e-07 -1.99347


Wall heat fluxes [W]
topAndBottom 0 0 0 0
left 0 0 0 0
right -0.854124 0 0 -0.854124
frontAndBack 0 0 0 0
sum -0.854124 0 0 -0.854124

Time = 9

DILUPBiCG:  Solving for Ux, Initial residual = 0.0417171, Final residual = 0.000313523, No Iterations 1
DILUPBiCG:  Solving for Uy, Initial residual = 0.0560919, Final residual = 5.16892e-06, No Iterations 2
DICPCG:  Solving for p_rgh, Initial residual = 0.0901823, Final residual = 0.000621411, No Iterations 12
time step continuity errors : sum local = 0.00115842, global = 4.77449e-17, cumulative = 1.10567e-16
DILUPBiCG:  Solving for epsilon, Initial residual = 0.0416558, Final residual = 4.44158e-05, No Iterations 2
DILUPBiCG:  Solving for k, Initial residual = 0.062109, Final residual = 0.000571335, No Iterations 2
DICPCG:  Solving for G, Initial residual = 0.00488664, Final residual = 0.000430484, No Iterations 12
Before T+T solve
BiCG:  Solving for T+T, Initial residual = 0.00293285, Final residual = 0.000140234, No Iterations 3
Tres = -1.90478
TsRes = -0.636312
ExecutionTime = 0.03 s



Wall heat fluxes [W]
movingWall -0.404453 2.60209e-15 -0.31619 -0.720643
left 0.0282882 1.90773e-16 0.239919 0.268208
right -0.0580054 1.05181e-15 -0.013981 -0.0719864
bottom -0.0886902 0 0.0902515 0.00156135
movingWall2 -0.321757 9.63958e-18 0.323137 0.00137994
left2 -0.151717 -1.61786e-16 0.250128 0.0984115
right2 -0.721208 -9.4783e-16 -0.838911 -1.56012
bottom2 -0.263085 0 0.265645 0.00255995
frontAndBack 0 0 0 0
sum -1.98063 2.7447e-15 -6.22862e-08 -1.98063


Wall heat fluxes [W]
topAndBottom 0 0 0 0
left 0 0 0 0
right -0.636312 0 0 -0.636312
frontAndBack 0 0 0 0
sum -0.636312 0 0 -0.636312

Time = 10

DILUPBiCG:  Solving for Ux, Initial residual = 0.0351116, Final residual = 1.48954e-05, No Iterations 2
DILUPBiCG:  Solving for Uy, Initial residual = 0.0503914, Final residual = 6.62799e-06, No Iterations 2
DICPCG:  Solving for p_rgh, Initial residual = 0.0876896, Final residual = 0.00053516, No Iterations 12
time step continuity errors : sum local = 0.000953101, global = 3.65283e-17, cumulative = 1.47095e-16
DILUPBiCG:  Solving for epsilon, Initial residual = 0.0348226, Final residual = 3.45436e-05, No Iterations 2
DILUPBiCG:  Solving for k, Initial residual = 0.059296, Final residual = 2.96671e-06, No Iterations 3
DICPCG:  Solving for G, Initial residual = 0.00536592, Final residual = 0.000114962, No Iterations 13
Before T+T solve
BiCG:  Solving for T+T, Initial residual = 0.00273536, Final residual = 7.026e-05, No Iterations 3
Tres = -1.88867
TsRes = -0.465937
ExecutionTime = 0.03 s



Wall heat fluxes [W]
movingWall -0.402364 -6.50521e-16 -0.313893 -0.716258
left 0.0290496 3.98889e-16 0.242207 0.271256
right -0.0550879 -3.75055e-16 -0.0177507 -0.0728386
bottom -0.0878038 0 0.0894372 0.00163341
movingWall2 -0.322269 3.30115e-16 0.323916 0.00164753
left2 -0.150514 -1.59481e-15 0.247396 0.0968813
right2 -0.719248 4.17045e-15 -0.835386 -1.55463
bottom2 -0.261293 0 0.264075 0.0027811
frontAndBack 0 0 0 0
sum -1.96953 2.27907e-15 1.35442e-08 -1.96953


Wall heat fluxes [W]
topAndBottom 0 0 0 0
left 0 0 0 0
right -0.465937 0 0 -0.465937
frontAndBack 0 0 0 0
sum -0.465937 0 0 -0.465937

Time = 11

DILUPBiCG:  Solving for Ux, Initial residual = 0.0309042, Final residual = 4.98653e-05, No Iterations 2
DILUPBiCG:  Solving for Uy, Initial residual = 0.0453556, Final residual = 9.4383e-06, No Iterations 2
DICPCG:  Solving for p_rgh, Initial residual = 0.0833629, Final residual = 0.000710808, No Iterations 8
time step continuity errors : sum local = 0.00155967, global = -4.00025e-17, cumulative = 1.07093e-16
DILUPBiCG:  Solving for epsilon, Initial residual = 0.0295953, Final residual = 2.589e-05, No Iterations 2
DILUPBiCG:  Solving for k, Initial residual = 0.0570673, Final residual = 2.8661e-06, No Iterations 3
DICPCG:  Solving for G, Initial residual = 0.00505211, Final residual = 0.000479413, No Iterations 12
Before T+T solve
BiCG:  Solving for T+T, Initial residual = 0.0025689, Final residual = 6.93557e-05, No Iterations 3
Tres = -1.87328
TsRes = -0.346613
ExecutionTime = 0.04 s



Wall heat fluxes [W]
movingWall -0.399716 -1.95156e-15 -0.311695 -0.711411
left 0.0297531 -6.07005e-17 0.244398 0.274151
right -0.0526317 8.30397e-16 -0.0210857 -0.0737174
bottom -0.0869098 0 0.0883831 0.00147323
movingWall2 -0.322252 9.34795e-16 0.324164 0.00191261
left2 -0.149374 1.84353e-15 0.245625 0.0962508
right2 -0.718969 -6.25568e-15 -0.831856 -1.55083
bottom2 -0.259684 0 0.262066 0.00238197
frontAndBack 0 0 0 0
sum -1.95978 -4.65922e-15 3.60878e-08 -1.95978


Wall heat fluxes [W]
topAndBottom 0 0 0 0
left 0 0 0 0
right -0.346613 0 0 -0.346613
frontAndBack 0 0 0 0
sum -0.346613 0 0 -0.346613

Time = 12

DILUPBiCG:  Solving for Ux, Initial residual = 0.0278924, Final residual = 0.000228037, No Iterations 1
DILUPBiCG:  Solving for Uy, Initial residual = 0.041446, Final residual = 1.35456e-05, No Iterations 2
DICPCG:  Solving for p_rgh, Initial residual = 0.0808164, Final residual = 0.000425553, No Iterations 12
time step continuity errors : sum local = 0.000690313, global = 1.75031e-17, cumulative = 1.24596e-16
DILUPBiCG:  Solving for epsilon, Initial residual = 0.0256379, Final residual = 2.06029e-05, No Iterations 2
DILUPBiCG:  Solving for k, Initial residual = 0.0553791, Final residual = 0.00044241, No Iterations 2
DICPCG:  Solving for G, Initial residual = 0.00500034, Final residual = 0.000448251, No Iterations 12
Before T+T solve
BiCG:  Solving for T+T, Initial residual = 0.00246088, Final residual = 0.000158299, No Iterations 4
Tres = -1.91186
TsRes = -0.257973
ExecutionTime = 0.04 s



Wall heat fluxes [W]
movingWall -0.396849 -4.55365e-15 -0.309742 -0.706591
left 0.0301386 3.4686e-17 0.246344 0.276483
right -0.0488782 1.14449e-16 -0.0240052 -0.0728835
bottom -0.0858937 0 0.087403 0.00150931
movingWall2 -0.321909 6.2833e-16 0.323748 0.00183869
left2 -0.147868 2.55861e-15 0.244003 0.0961343
right2 -0.719416 9.4783e-16 -0.828465 -1.54788
bottom2 -0.258292 0 0.260715 0.00242302
frontAndBack 0 0 0 0
sum -1.94897 -2.69744e-16 7.76685e-08 -1.94897


Wall heat fluxes [W]
topAndBottom 0 0 0 0
left 0 0 0 0
right -0.257973 0 0 -0.257973
frontAndBack 0 0 0 0
sum -0.257973 0 0 -0.257973

Time = 13

DILUPBiCG:  Solving for Ux, Initial residual = 0.025492, Final residual = 0.000196313, No Iterations 1
DILUPBiCG:  Solving for Uy, Initial residual = 0.0389546, Final residual = 1.32975e-05, No Iterations 2
DICPCG:  Solving for p_rgh, Initial residual = 0.0810084, Final residual = 0.000802287, No Iterations 10
time step continuity errors : sum local = 0.0013136, global = -5.35972e-17, cumulative = 7.0999e-17
DILUPBiCG:  Solving for epsilon, Initial residual = 0.0222728, Final residual = 1.6678e-05, No Iterations 2
DILUPBiCG:  Solving for k, Initial residual = 0.053956, Final residual = 0.000262074, No Iterations 2
DICPCG:  Solving for G, Initial residual = 0.00477552, Final residual = 0.000402239, No Iterations 12
Before T+T solve
BiCG:  Solving for T+T, Initial residual = 0.00239605, Final residual = 0.000105396, No Iterations 3
Tres = -1.88562
TsRes = -0.194131
ExecutionTime = 0.04 s



Wall heat fluxes [W]
movingWall -0.3937 -1.30104e-15 -0.307921 -0.701621
left 0.0306241 8.6715e-18 0.248162 0.278786
right -0.0462906 8.71339e-16 -0.0264606 -0.0727512
bottom -0.08483 0 0.0862201 0.00139015
movingWall2 -0.321182 -9.45001e-16 0.323369 0.00218702
left2 -0.146624 -7.19748e-16 0.242639 0.0960151
right2 -0.720245 -3.03306e-15 -0.825182 -1.54543
bottom2 -0.256744 0 0.259174 0.00243011
frontAndBack 0 0 0 0
sum -1.93899 -5.11884e-15 1.22102e-07 -1.93899


Wall heat fluxes [W]
topAndBottom 0 0 0 0
left 0 0 0 0
right -0.194131 0 0 -0.194131
frontAndBack 0 0 0 0
sum -0.194131 0 0 -0.194131

Time = 14

DILUPBiCG:  Solving for Ux, Initial residual = 0.0228204, Final residual = 0.000172537, No Iterations 1
DILUPBiCG:  Solving for Uy, Initial residual = 0.0371548, Final residual = 1.78969e-05, No Iterations 2
DICPCG:  Solving for p_rgh, Initial residual = 0.077411, Final residual = 0.000722854, No Iterations 11
time step continuity errors : sum local = 0.00114394, global = -5.22116e-17, cumulative = 1.87873e-17
DILUPBiCG:  Solving for epsilon, Initial residual = 0.019141, Final residual = 1.31245e-05, No Iterations 2
DILUPBiCG:  Solving for k, Initial residual = 0.0525979, Final residual = 0.000170961, No Iterations 2
DICPCG:  Solving for G, Initial residual = 0.00523008, Final residual = 0.000518754, No Iterations 12
Before T+T solve
BiCG:  Solving for T+T, Initial residual = 0.00234884, Final residual = 0.000231365, No Iterations 2
Tres = -1.86856
TsRes = -0.180549
ExecutionTime = 0.04 s



Wall heat fluxes [W]
movingWall -0.39033 -4.55365e-15 -0.30592 -0.69625
left 0.0310573 -8.6715e-17 0.250157 0.281214
right -0.0438814 1.89996e-16 -0.0296908 -0.0735722
bottom -0.0838988 0 0.0854544 0.00155558
movingWall2 -0.320042 -9.33436e-16 0.322653 0.00261083
left2 -0.144749 -6.39478e-16 0.240916 0.0961674
right2 -0.720775 9.4783e-16 -0.821543 -1.54232
bottom2 -0.255252 0 0.257974 0.00272131
frontAndBack 0 0 0 0
sum -1.92787 -5.07545e-15 1.58295e-08 -1.92787


Wall heat fluxes [W]
topAndBottom 0 0 0 0
left 0 0 0 0
right -0.180549 0 0 -0.180549
frontAndBack 0 0 0 0
sum -0.180549 0 0 -0.180549

Time = 15

DILUPBiCG:  Solving for Ux, Initial residual = 0.02117, Final residual = 0.000157042, No Iterations 1
DILUPBiCG:  Solving for Uy, Initial residual = 0.0362164, Final residual = 2.18544e-05, No Iterations 2
DICPCG:  Solving for p_rgh, Initial residual = 0.07357, Final residual = 0.000589468, No Iterations 11
time step continuity errors : sum local = 0.000930979, global = -2.64718e-17, cumulative = -7.68451e-18
DILUPBiCG:  Solving for epsilon, Initial residual = 0.0165313, Final residual = 1.1856e-05, No Iterations 2
DILUPBiCG:  Solving for k, Initial residual = 0.051241, Final residual = 0.000126481, No Iterations 2
DICPCG:  Solving for G, Initial residual = 0.00547788, Final residual = 0.000445774, No Iterations 12
Before T+T solve
BiCG:  Solving for T+T, Initial residual = 0.0023533, Final residual = 0.000228573, No Iterations 2
Tres = -1.85657
TsRes = -0.167471
ExecutionTime = 0.05 s



Wall heat fluxes [W]
movingWall -0.38687 3.25261e-15 -0.30402 -0.69089
left 0.0315149 -1.7343e-16 0.252053 0.283568
right -0.0421104 3.80389e-16 -0.0322935 -0.0744038
bottom -0.0828753 0 0.0842602 0.0013849
movingWall2 -0.31842 9.34357e-16 0.321342 0.00292148
left2 -0.143349 -2.96799e-15 0.239865 0.0965162
right2 -0.720543 -5.30785e-15 -0.81765 -1.53819
bottom2 -0.253608 0 0.256443 0.00283541
frontAndBack 0 0 0 0
sum -1.91626 -3.88191e-15 1.78598e-07 -1.91626


Wall heat fluxes [W]
topAndBottom 0 0 0 0
left 0 0 0 0
right -0.167471 0 0 -0.167471
frontAndBack 0 0 0 0
sum -0.167471 0 0 -0.167471

Time = 16

DILUPBiCG:  Solving for Ux, Initial residual = 0.0195037, Final residual = 0.000145707, No Iterations 1
DILUPBiCG:  Solving for Uy, Initial residual = 0.0351654, Final residual = 2.79539e-05, No Iterations 2
DICPCG:  Solving for p_rgh, Initial residual = 0.0673495, Final residual = 0.000514453, No Iterations 11
time step continuity errors : sum local = 0.000812103, global = -5.84982e-17, cumulative = -6.61827e-17
DILUPBiCG:  Solving for epsilon, Initial residual = 0.0142782, Final residual = 1.16976e-05, No Iterations 2
DILUPBiCG:  Solving for k, Initial residual = 0.0497453, Final residual = 9.96471e-05, No Iterations 2
DICPCG:  Solving for G, Initial residual = 0.00571143, Final residual = 0.000501358, No Iterations 12
Before T+T solve
BiCG:  Solving for T+T, Initial residual = 0.00235733, Final residual = 0.000218563, No Iterations 2
Tres = -1.84442
TsRes = -0.155295
ExecutionTime = 0.05 s



Wall heat fluxes [W]
movingWall -0.383324 1.30104e-15 -0.302208 -0.685532
left 0.0321281 0 0.253861 0.285989
right -0.0406103 -6.47136e-16 -0.0349703 -0.0755806
bottom -0.0820594 0 0.0833175 0.00125816
movingWall2 -0.316517 -1.58446e-15 0.319818 0.00330154
left2 -0.141862 -2.16688e-15 0.238441 0.0965784
right2 -0.719364 -1.51653e-15 -0.81335 -1.53271
bottom2 -0.252105 0 0.255091 0.00298636
frontAndBack 0 0 0 0
sum -1.90371 -4.61397e-15 9.40547e-08 -1.90371


Wall heat fluxes [W]
topAndBottom 0 0 0 0
left 0 0 0 0
right -0.155295 0 0 -0.155295
frontAndBack 0 0 0 0
sum -0.155295 0 0 -0.155295

Time = 17

DILUPBiCG:  Solving for Ux, Initial residual = 0.018492, Final residual = 0.000141697, No Iterations 1
DILUPBiCG:  Solving for Uy, Initial residual = 0.0344494, Final residual = 3.7841e-05, No Iterations 2
DICPCG:  Solving for p_rgh, Initial residual = 0.0637674, Final residual = 0.00062096, No Iterations 10
time step continuity errors : sum local = 0.000971114, global = 8.76129e-17, cumulative = 2.14302e-17
DILUPBiCG:  Solving for epsilon, Initial residual = 0.0121708, Final residual = 1.09141e-05, No Iterations 2
DILUPBiCG:  Solving for k, Initial residual = 0.0485582, Final residual = 7.62703e-05, No Iterations 2
DICPCG:  Solving for G, Initial residual = 0.00578268, Final residual = 0.000455291, No Iterations 12
Before T+T solve
BiCG:  Solving for T+T, Initial residual = 0.00236019, Final residual = 0.000226075, No Iterations 1
Tres = -1.83716
TsRes = -0.151511
ExecutionTime = 0.05 s



Wall heat fluxes [W]
movingWall -0.379887 6.50521e-15 -0.300608 -0.680495
left 0.0324923 -4.85604e-16 0.255457 0.287949
right -0.040002 -7.79952e-16 -0.0372641 -0.077266
bottom -0.0812574 0 0.0824155 0.00115816
movingWall2 -0.314298 -1.58048e-15 0.31771 0.00341183
left2 -0.141176 1.20548e-15 0.237551 0.096375
right2 -0.71768 1.89566e-15 -0.808873 -1.52655
bottom2 -0.250644 0 0.253612 0.00296772
frontAndBack 0 0 0 0
sum -1.89245 6.76031e-15 1.69299e-07 -1.89245


Wall heat fluxes [W]
topAndBottom 0 0 0 0
left 0 0 0 0
right -0.151511 0 0 -0.151511
frontAndBack 0 0 0 0
sum -0.151511 0 0 -0.151511

Time = 18

DILUPBiCG:  Solving for Ux, Initial residual = 0.0175766, Final residual = 0.000140944, No Iterations 1
DILUPBiCG:  Solving for Uy, Initial residual = 0.0344734, Final residual = 4.23595e-05, No Iterations 2
DICPCG:  Solving for p_rgh, Initial residual = 0.0659314, Final residual = 0.000592562, No Iterations 10
time step continuity errors : sum local = 0.000934862, global = 5.54542e-17, cumulative = 7.68844e-17
DILUPBiCG:  Solving for epsilon, Initial residual = 0.0102906, Final residual = 4.95995e-05, No Iterations 2
DILUPBiCG:  Solving for k, Initial residual = 0.0475371, Final residual = 6.32564e-05, No Iterations 2
DICPCG:  Solving for G, Initial residual = 0.00568344, Final residual = 0.000457278, No Iterations 12
Before T+T solve
BiCG:  Solving for T+T, Initial residual = 0.00237366, Final residual = 0.000222943, No Iterations 1
Tres = -1.82304
TsRes = -0.14778
ExecutionTime = 0.06 s



Wall heat fluxes [W]
movingWall -0.376402 0 -0.299137 -0.67554
left 0.0328659 -3.4686e-17 0.256924 0.28979
right -0.0391928 -9.56368e-17 -0.0393705 -0.0785633
bottom -0.0804339 0 0.0815834 0.00114952
movingWall2 -0.311757 -9.52436e-16 0.315464 0.00370675
left2 -0.139739 1.13467e-15 0.236598 0.0968598
right2 -0.715289 3.03306e-15 -0.804313 -1.5196
bottom2 -0.249052 0 0.252251 0.00319864
frontAndBack 0 0 0 0
sum -1.879 3.08497e-15 1.71827e-07 -1.879


Wall heat fluxes [W]
topAndBottom 0 0 0 0
left 0 0 0 0
right -0.14778 0 0 -0.14778
frontAndBack 0 0 0 0
sum -0.14778 0 0 -0.14778

Time = 19

DILUPBiCG:  Solving for Ux, Initial residual = 0.0170406, Final residual = 0.000137313, No Iterations 1
DILUPBiCG:  Solving for Uy, Initial residual = 0.0344168, Final residual = 4.12656e-05, No Iterations 2
DICPCG:  Solving for p_rgh, Initial residual = 0.0632629, Final residual = 0.000532116, No Iterations 10
time step continuity errors : sum local = 0.000837494, global = 4.65206e-17, cumulative = 1.23405e-16
DILUPBiCG:  Solving for epsilon, Initial residual = 0.00928799, Final residual = 1.47258e-05, No Iterations 2
DILUPBiCG:  Solving for k, Initial residual = 0.0464781, Final residual = 6.13106e-05, No Iterations 2
DICPCG:  Solving for G, Initial residual = 0.00551156, Final residual = 0.00054162, No Iterations 11
Before T+T solve
BiCG:  Solving for T+T, Initial residual = 0.0023826, Final residual = 0.000220993, No Iterations 1
Tres = -1.80847
TsRes = -0.14414
ExecutionTime = 0.06 s



Wall heat fluxes [W]
movingWall -0.372914 6.50521e-16 -0.297906 -0.670819
left 0.0332823 -1.38744e-16 0.258153 0.291436
right -0.0387013 -1.72582e-16 -0.0407751 -0.0794763
bottom -0.0795253 0 0.0805276 0.00100224
movingWall2 -0.308682 1.27382e-15 0.312654 0.00397188
left2 -0.138247 3.62781e-15 0.236611 0.0983643
right2 -0.712621 -1.89566e-16 -0.799724 -1.51234
bottom2 -0.247124 0 0.250457 0.00333353
frontAndBack 0 0 0 0
sum -1.86453 5.05126e-15 -3.24646e-07 -1.86453


Wall heat fluxes [W]
topAndBottom 0 0 0 0
left 0 0 0 0
right -0.14414 0 0 -0.14414
frontAndBack 0 0 0 0
sum -0.14414 0 0 -0.14414

Time = 20

DILUPBiCG:  Solving for Ux, Initial residual = 0.0163298, Final residual = 0.000130685, No Iterations 1
DILUPBiCG:  Solving for Uy, Initial residual = 0.0342618, Final residual = 1.80971e-05, No Iterations 2
DICPCG:  Solving for p_rgh, Initial residual = 0.0598816, Final residual = 0.000473607, No Iterations 10
time step continuity errors : sum local = 0.000739157, global = 2.8455e-17, cumulative = 1.5186e-16
DILUPBiCG:  Solving for epsilon, Initial residual = 0.00912314, Final residual = 1.35463e-05, No Iterations 2
DILUPBiCG:  Solving for k, Initial residual = 0.0456747, Final residual = 6.43439e-05, No Iterations 2
DICPCG:  Solving for G, Initial residual = 0.00596176, Final residual = 0.000436786, No Iterations 11
Before T+T solve
BiCG:  Solving for T+T, Initial residual = 0.00239246, Final residual = 0.000218633, No Iterations 1
Tres = -1.79239
TsRes = -0.140582
ExecutionTime = 0.06 s



Wall heat fluxes [W]
movingWall -0.369161 -1.30104e-15 -0.296711 -0.665872
left 0.0337505 0 0.259345 0.293096
right -0.0383482 -2.46181e-16 -0.0423643 -0.0807125
bottom -0.0787225 0 0.07973 0.00100754
movingWall2 -0.305349 3.10926e-18 0.309729 0.00438047
left2 -0.136379 2.26075e-15 0.236184 0.0998051
right2 -0.709141 5.68698e-16 -0.79472 -1.50386
bottom2 -0.245151 0 0.248806 0.0036555
frontAndBack 0 0 0 0
sum -1.8485 1.28533e-15 -1.9599e-07 -1.8485


Wall heat fluxes [W]
topAndBottom 0 0 0 0
left 0 0 0 0
right -0.140582 0 0 -0.140582
frontAndBack 0 0 0 0
sum -0.140582 0 0 -0.140582

Time = 21

DILUPBiCG:  Solving for Ux, Initial residual = 0.015784, Final residual = 0.000126399, No Iterations 1
DILUPBiCG:  Solving for Uy, Initial residual = 0.0342208, Final residual = 8.28163e-06, No Iterations 2
DICPCG:  Solving for p_rgh, Initial residual = 0.0603073, Final residual = 0.000457452, No Iterations 10
time step continuity errors : sum local = 0.000709522, global = -9.29751e-17, cumulative = 5.88849e-17
DILUPBiCG:  Solving for epsilon, Initial residual = 0.00996214, Final residual = 1.33017e-05, No Iterations 2
DILUPBiCG:  Solving for k, Initial residual = 0.0451705, Final residual = 6.96232e-05, No Iterations 2
DICPCG:  Solving for G, Initial residual = 0.0062116, Final residual = 0.000433417, No Iterations 11
Before T+T solve
BiCG:  Solving for T+T, Initial residual = 0.00239458, Final residual = 0.000215906, No Iterations 1
Tres = -1.77435
TsRes = -0.137107
ExecutionTime = 0.06 s



Wall heat fluxes [W]
movingWall -0.365116 -1.30104e-15 -0.295561 -0.660677
left 0.0343013 -5.54976e-16 0.260493 0.294794
right -0.0381923 -1.90248e-16 -0.0438099 -0.0820022
bottom -0.077901 0 0.0788777 0.000976694
movingWall2 -0.301643 6.38098e-16 0.306405 0.00476263
left2 -0.134306 -2.01849e-15 0.235961 0.101655
right2 -0.704713 -3.60175e-15 -0.789296 -1.49401
bottom2 -0.243002 0 0.246929 0.00392774
frontAndBack 0 0 0 0
sum -1.83057 -7.02842e-15 -1.11735e-07 -1.83057


Wall heat fluxes [W]
topAndBottom 0 0 0 0
left 0 0 0 0
right -0.137107 0 0 -0.137107
frontAndBack 0 0 0 0
sum -0.137107 0 0 -0.137107

Time = 22

DILUPBiCG:  Solving for Ux, Initial residual = 0.0151458, Final residual = 0.000124902, No Iterations 1
DILUPBiCG:  Solving for Uy, Initial residual = 0.0336765, Final residual = 5.35804e-06, No Iterations 2
DICPCG:  Solving for p_rgh, Initial residual = 0.0578547, Final residual = 0.000473183, No Iterations 10
time step continuity errors : sum local = 0.000735474, global = 7.64315e-17, cumulative = 1.35316e-16
DILUPBiCG:  Solving for epsilon, Initial residual = 0.0105927, Final residual = 1.20169e-05, No Iterations 2
DILUPBiCG:  Solving for k, Initial residual = 0.0444391, Final residual = 7.48383e-05, No Iterations 2
DICPCG:  Solving for G, Initial residual = 0.00665483, Final residual = 0.000537149, No Iterations 11
Before T+T solve
BiCG:  Solving for T+T, Initial residual = 0.00239322, Final residual = 0.000213825, No Iterations 1
Tres = -1.75415
TsRes = -0.133715
ExecutionTime = 0.07 s



Wall heat fluxes [W]
movingWall -0.360754 -6.50521e-16 -0.294419 -0.655174
left 0.0350495 4.16232e-16 0.261631 0.296681
right -0.0381544 4.19981e-16 -0.0452892 -0.0834436
bottom -0.0771227 0 0.0780772 0.000954512
movingWall2 -0.297621 2.56243e-15 0.302806 0.00518565
left2 -0.131968 9.69162e-16 0.235576 0.103608
right2 -0.699305 2.08523e-15 -0.783382 -1.48269
bottom2 -0.240733 0 0.244999 0.00426662
frontAndBack 0 0 0 0
sum -1.81061 5.80251e-15 -4.74771e-07 -1.81061


Wall heat fluxes [W]
topAndBottom 0 0 0 0
left 0 0 0 0
right -0.133715 0 0 -0.133715
frontAndBack 0 0 0 0
sum -0.133715 0 0 -0.133715

Time = 23

DILUPBiCG:  Solving for Ux, Initial residual = 0.0145718, Final residual = 0.000124445, No Iterations 1
DILUPBiCG:  Solving for Uy, Initial residual = 0.0327118, Final residual = 4.03575e-06, No Iterations 2
DICPCG:  Solving for p_rgh, Initial residual = 0.0557801, Final residual = 0.000516275, No Iterations 10
time step continuity errors : sum local = 0.00080471, global = 5.35351e-17, cumulative = 1.88852e-16
DILUPBiCG:  Solving for epsilon, Initial residual = 0.0110101, Final residual = 1.12713e-05, No Iterations 2
DILUPBiCG:  Solving for k, Initial residual = 0.0436755, Final residual = 7.9477e-05, No Iterations 2
DICPCG:  Solving for G, Initial residual = 0.00720539, Final residual = 0.000490005, No Iterations 11
Before T+T solve
BiCG:  Solving for T+T, Initial residual = 0.00238952, Final residual = 0.000212016, No Iterations 1
Tres = -1.7318
TsRes = -0.130404
ExecutionTime = 0.07 s



Wall heat fluxes [W]
movingWall -0.356054 3.25261e-15 -0.293295 -0.649349
left 0.0359679 -5.54976e-16 0.262752 0.29872
right -0.0382273 6.88868e-16 -0.0467613 -0.0849885
bottom -0.0763941 0 0.0773045 0.000910411
movingWall2 -0.293278 -6.34828e-16 0.298869 0.00559116
left2 -0.129388 -2.44889e-16 0.235193 0.105805
right2 -0.692959 3.41219e-15 -0.77696 -1.46992
bottom2 -0.238339 0 0.242898 0.00455919
frontAndBack 0 0 0 0
sum -1.78867 5.91897e-15 -1.10576e-07 -1.78867


Wall heat fluxes [W]
topAndBottom 0 0 0 0
left 0 0 0 0
right -0.130404 0 0 -0.130404
frontAndBack 0 0 0 0
sum -0.130404 0 0 -0.130404

Time = 24

DILUPBiCG:  Solving for Ux, Initial residual = 0.0139707, Final residual = 0.000123628, No Iterations 1
DILUPBiCG:  Solving for Uy, Initial residual = 0.0316815, Final residual = 3.42757e-06, No Iterations 2
DICPCG:  Solving for p_rgh, Initial residual = 0.0539562, Final residual = 0.000323036, No Iterations 11
time step continuity errors : sum local = 0.000505206, global = 8.06667e-17, cumulative = 2.69518e-16
DILUPBiCG:  Solving for epsilon, Initial residual = 0.0112141, Final residual = 1.42811e-05, No Iterations 2
DILUPBiCG:  Solving for k, Initial residual = 0.0430111, Final residual = 8.41775e-05, No Iterations 2
DICPCG:  Solving for G, Initial residual = 0.00761672, Final residual = 0.000572598, No Iterations 11
Before T+T solve
BiCG:  Solving for T+T, Initial residual = 0.00237918, Final residual = 0.000209269, No Iterations 1
Tres = -1.70729
TsRes = -0.127174
ExecutionTime = 0.07 s



Wall heat fluxes [W]
movingWall -0.350992 3.25261e-15 -0.292181 -0.643172
left 0.0371093 -1.38744e-16 0.263863 0.300972
right -0.038375 -3.82564e-16 -0.048292 -0.0866669
bottom -0.0757671 0 0.0766096 0.000842428
movingWall2 -0.288639 3.15366e-16 0.294623 0.00598323
left2 -0.126524 -1.62625e-15 0.234697 0.108173
right2 -0.685745 3.98089e-15 -0.770034 -1.45578
bottom2 -0.235821 0 0.240714 0.0048932
frontAndBack 0 0 0 0
sum -1.76475 5.4013e-15 -5.28767e-07 -1.76475


Wall heat fluxes [W]
topAndBottom 0 0 0 0
left 0 0 0 0
right -0.127174 0 0 -0.127174
frontAndBack 0 0 0 0
sum -0.127174 0 0 -0.127174

Time = 25

DILUPBiCG:  Solving for Ux, Initial residual = 0.0134326, Final residual = 0.00012698, No Iterations 1
DILUPBiCG:  Solving for Uy, Initial residual = 0.0307593, Final residual = 3.04782e-06, No Iterations 2
DICPCG:  Solving for p_rgh, Initial residual = 0.053577, Final residual = 0.000391783, No Iterations 11
time step continuity errors : sum local = 0.000615291, global = 3.93076e-17, cumulative = 3.08826e-16
DILUPBiCG:  Solving for epsilon, Initial residual = 0.0114309, Final residual = 2.58894e-05, No Iterations 2
DILUPBiCG:  Solving for k, Initial residual = 0.0422273, Final residual = 8.8745e-05, No Iterations 2
DICPCG:  Solving for G, Initial residual = 0.00816932, Final residual = 0.000643928, No Iterations 11
Before T+T solve
BiCG:  Solving for T+T, Initial residual = 0.00236541, Final residual = 0.000206388, No Iterations 1
Tres = -1.6805
TsRes = -0.124024
ExecutionTime = 0.07 s



Wall heat fluxes [W]
movingWall -0.345559 -1.95156e-15 -0.291087 -0.636646
left 0.0385272 1.7343e-16 0.264952 0.303479
right -0.0385742 -1.89996e-16 -0.0498934 -0.0884677
bottom -0.075231 0 0.0760287 0.000797734
movingWall2 -0.283743 6.42453e-16 0.290101 0.00635727
left2 -0.1235 1.54364e-15 0.234127 0.110627
right2 -0.677757 3.03306e-15 -0.762598 -1.44036
bottom2 -0.233102 0 0.238371 0.00526922
frontAndBack 0 0 0 0
sum -1.73894 3.25102e-15 -1.58168e-07 -1.73894


Wall heat fluxes [W]
topAndBottom 0 0 0 0
left 0 0 0 0
right -0.124024 0 0 -0.124024
frontAndBack 0 0 0 0
sum -0.124024 0 0 -0.124024

Time = 26

DILUPBiCG:  Solving for Ux, Initial residual = 0.0129465, Final residual = 6.77701e-06, No Iterations 2
DILUPBiCG:  Solving for Uy, Initial residual = 0.0295772, Final residual = 2.93331e-06, No Iterations 2
DICPCG:  Solving for p_rgh, Initial residual = 0.0542981, Final residual = 0.000443563, No Iterations 11
time step continuity errors : sum local = 0.00069328, global = 6.16084e-17, cumulative = 3.70434e-16
DILUPBiCG:  Solving for epsilon, Initial residual = 0.0115439, Final residual = 6.46427e-05, No Iterations 2
DILUPBiCG:  Solving for k, Initial residual = 0.0414925, Final residual = 9.41941e-05, No Iterations 2
DICPCG:  Solving for G, Initial residual = 0.00866952, Final residual = 0.000728931, No Iterations 11
Before T+T solve
BiCG:  Solving for T+T, Initial residual = 0.0023469, Final residual = 0.000203221, No Iterations 1
Tres = -1.65152
TsRes = -0.120952
ExecutionTime = 0.08 s



Wall heat fluxes [W]
movingWall -0.339756 7.15573e-15 -0.289996 -0.629752
left 0.040296 3.12174e-16 0.266037 0.306333
right -0.0388018 -1.26326e-15 -0.0515753 -0.0903771
bottom -0.0747535 0 0.0755341 0.000780601
movingWall2 -0.27866 -9.66239e-16 0.285364 0.00670467
left2 -0.120319 -8.95996e-16 0.233453 0.113134
right2 -0.669105 7.58264e-16 -0.754628 -1.42373
bottom2 -0.230157 0 0.235811 0.00565322
frontAndBack 0 0 0 0
sum -1.71126 5.10068e-15 -5.82399e-07 -1.71126


Wall heat fluxes [W]
topAndBottom 0 0 0 0
left 0 0 0 0
right -0.120952 0 0 -0.120952
frontAndBack 0 0 0 0
sum -0.120952 0 0 -0.120952

Time = 27

DILUPBiCG:  Solving for Ux, Initial residual = 0.0124553, Final residual = 7.61747e-05, No Iterations 2
DILUPBiCG:  Solving for Uy, Initial residual = 0.0282047, Final residual = 2.89636e-06, No Iterations 2
DICPCG:  Solving for p_rgh, Initial residual = 0.0544005, Final residual = 0.000479651, No Iterations 11
time step continuity errors : sum local = 0.000743048, global = 6.56451e-17, cumulative = 4.36079e-16
DILUPBiCG:  Solving for epsilon, Initial residual = 0.0116172, Final residual = 1.04229e-06, No Iterations 3
DILUPBiCG:  Solving for k, Initial residual = 0.0406275, Final residual = 0.000100867, No Iterations 2
DICPCG:  Solving for G, Initial residual = 0.0092073, Final residual = 0.000792715, No Iterations 11
Before T+T solve
BiCG:  Solving for T+T, Initial residual = 0.0023231, Final residual = 0.00019987, No Iterations 1
Tres = -1.6204
TsRes = -0.117957
ExecutionTime = 0.08 s



Wall heat fluxes [W]
movingWall -0.333584 4.55365e-15 -0.288891 -0.622474
left 0.0424718 -4.50918e-16 0.267137 0.309609
right -0.0390492 4.60994e-16 -0.0533344 -0.0923836
bottom -0.0743615 0 0.0750881 0.000726617
movingWall2 -0.273439 -6.53579e-16 0.280441 0.00700202
left2 -0.117068 2.9437e-15 0.232717 0.115649
right2 -0.659908 -1.1374e-15 -0.746149 -1.40606
bottom2 -0.226973 0 0.23299 0.00601792
frontAndBack 0 0 0 0
sum -1.68191 5.71645e-15 5.74438e-08 -1.68191


Wall heat fluxes [W]
topAndBottom 0 0 0 0
left 0 0 0 0
right -0.117957 0 0 -0.117957
frontAndBack 0 0 0 0
sum -0.117957 0 0 -0.117957

Time = 28

DILUPBiCG:  Solving for Ux, Initial residual = 0.0120414, Final residual = 8.34631e-06, No Iterations 2
DILUPBiCG:  Solving for Uy, Initial residual = 0.0267343, Final residual = 2.9603e-06, No Iterations 2
DICPCG:  Solving for p_rgh, Initial residual = 0.0543112, Final residual = 0.000495483, No Iterations 11
time step continuity errors : sum local = 0.000761882, global = -7.21301e-17, cumulative = 3.63949e-16
DILUPBiCG:  Solving for epsilon, Initial residual = 0.0117013, Final residual = 9.65949e-07, No Iterations 3
DILUPBiCG:  Solving for k, Initial residual = 0.0395092, Final residual = 0.00010301, No Iterations 2
DICPCG:  Solving for G, Initial residual = 0.0096273, Final residual = 0.000939953, No Iterations 11
Before T+T solve
BiCG:  Solving for T+T, Initial residual = 0.00229818, Final residual = 0.000197464, No Iterations 1
Tres = -1.58753
TsRes = -0.115039
ExecutionTime = 0.08 s



Wall heat fluxes [W]
movingWall -0.327058 -1.95156e-15 -0.287784 -0.614842
left 0.0450622 -5.2029e-16 0.268238 0.313301
right -0.0392891 5.36383e-16 -0.0552066 -0.0944957
bottom -0.0740421 0 0.0747514 0.000709264
movingWall2 -0.268161 -3.2171e-16 0.275393 0.00723169
left2 -0.113862 -3.85045e-15 0.231892 0.11803
right2 -0.650567 7.58264e-16 -0.737197 -1.38776
bottom2 -0.223544 0 0.229912 0.00636836
frontAndBack 0 0 0 0
sum -1.65146 -5.34936e-15 -5.89057e-07 -1.65146


Wall heat fluxes [W]
topAndBottom 0 0 0 0
left 0 0 0 0
right -0.115039 0 0 -0.115039
frontAndBack 0 0 0 0
sum -0.115039 0 0 -0.115039

Time = 29

DILUPBiCG:  Solving for Ux, Initial residual = 0.0116429, Final residual = 4.39454e-06, No Iterations 2
DILUPBiCG:  Solving for Uy, Initial residual = 0.0252481, Final residual = 3.11538e-06, No Iterations 2
DICPCG:  Solving for p_rgh, Initial residual = 0.0557751, Final residual = 0.00051519, No Iterations 11
time step continuity errors : sum local = 0.000787127, global = 3.86459e-17, cumulative = 4.02595e-16
DILUPBiCG:  Solving for epsilon, Initial residual = 0.0116889, Final residual = 8.2455e-05, No Iterations 2
DILUPBiCG:  Solving for k, Initial residual = 0.0383848, Final residual = 0.000101984, No Iterations 2
DICPCG:  Solving for G, Initial residual = 0.0100726, Final residual = 0.000641598, No Iterations 12
Before T+T solve
BiCG:  Solving for T+T, Initial residual = 0.00226987, Final residual = 0.000194584, No Iterations 1
Tres = -1.55316
TsRes = -0.112195
ExecutionTime = 0.08 s



Wall heat fluxes [W]
movingWall -0.320215 6.50521e-16 -0.286665 -0.606879
left 0.0481018 3.81546e-16 0.269352 0.317453
right -0.0395117 -3.81738e-16 -0.0571487 -0.0966604
bottom -0.0737771 0 0.0744617 0.000684654
movingWall2 -0.262917 -6.50742e-16 0.270288 0.00737105
left2 -0.110867 1.06864e-15 0.231019 0.120152
right2 -0.641231 2.27479e-15 -0.727842 -1.36907
bottom2 -0.219853 0 0.226535 0.00668195
frontAndBack 0 0 0 0
sum -1.62027 3.34302e-15 3.94748e-07 -1.62027


Wall heat fluxes [W]
topAndBottom 0 0 0 0
left 0 0 0 0
right -0.112195 0 0 -0.112195
frontAndBack 0 0 0 0
sum -0.112195 0 0 -0.112195

Time = 30

DILUPBiCG:  Solving for Ux, Initial residual = 0.0113276, Final residual = 3.31949e-06, No Iterations 2
DILUPBiCG:  Solving for Uy, Initial residual = 0.0238953, Final residual = 3.27036e-06, No Iterations 2
DICPCG:  Solving for p_rgh, Initial residual = 0.0574678, Final residual = 0.000548147, No Iterations 11
time step continuity errors : sum local = 0.000834035, global = -5.22778e-17, cumulative = 3.50317e-16
DILUPBiCG:  Solving for epsilon, Initial residual = 0.0115321, Final residual = 5.9312e-05, No Iterations 2
DILUPBiCG:  Solving for k, Initial residual = 0.0371009, Final residual = 0.000101142, No Iterations 2
DICPCG:  Solving for G, Initial residual = 0.0099982, Final residual = 0.000713841, No Iterations 12
Before T+T solve
BiCG:  Solving for T+T, Initial residual = 0.00223401, Final residual = 0.000191836, No Iterations 1
Tres = -1.51667
TsRes = -0.109422
ExecutionTime = 0.09 s



Wall heat fluxes [W]
movingWall -0.313103 -2.60209e-15 -0.285539 -0.598642
left 0.0516054 6.24348e-16 0.270471 0.322076
right -0.0396924 2.2619e-19 -0.0591588 -0.0988512
bottom -0.073567 0 0.074227 0.000660001
movingWall2 -0.257819 -1.63852e-15 0.265209 0.00739033
left2 -0.108392 -7.99209e-17 0.230137 0.121745
right2 -0.631338 7.58264e-16 -0.718181 -1.34952
bottom2 -0.215886 0 0.222836 0.00694972
frontAndBack 0 0 0 0
sum -1.58819 -2.93768e-15 4.0607e-07 -1.58819


Wall heat fluxes [W]
topAndBottom 0 0 0 0
left 0 0 0 0
right -0.109422 0 0 -0.109422
frontAndBack 0 0 0 0
sum -0.109422 0 0 -0.109422

Time = 31

DILUPBiCG:  Solving for Ux, Initial residual = 0.0109104, Final residual = 2.88921e-06, No Iterations 2
DILUPBiCG:  Solving for Uy, Initial residual = 0.0224733, Final residual = 3.34618e-06, No Iterations 2
DICPCG:  Solving for p_rgh, Initial residual = 0.0572873, Final residual = 0.000549776, No Iterations 11
time step continuity errors : sum local = 0.000835022, global = 1.21033e-16, cumulative = 4.7135e-16
DILUPBiCG:  Solving for epsilon, Initial residual = 0.0113313, Final residual = 4.38868e-05, No Iterations 2
DILUPBiCG:  Solving for k, Initial residual = 0.0354979, Final residual = 0.000102589, No Iterations 2
DICPCG:  Solving for G, Initial residual = 0.0100739, Final residual = 0.000710747, No Iterations 12
Before T+T solve
BiCG:  Solving for T+T, Initial residual = 0.00219017, Final residual = 0.000191545, No Iterations 1
Tres = -1.47664
TsRes = -0.106718
ExecutionTime = 0.09 s



Wall heat fluxes [W]
movingWall -0.305791 2.60209e-15 -0.28442 -0.59021
left 0.0555664 1.45681e-15 0.271584 0.32715
right -0.0397988 7.70661e-17 -0.0611987 -0.100998
bottom -0.073404 0 0.074035 0.000631037
movingWall2 -0.252997 9.84088e-16 0.260257 0.00726032
left2 -0.10659 3.28671e-16 0.22933 0.12274
right2 -0.620979 4.17045e-15 -0.708354 -1.32933
bottom2 -0.211619 0 0.218767 0.00714795
frontAndBack 0 0 0 0
sum -1.55561 9.61917e-15 4.49396e-07 -1.55561


Wall heat fluxes [W]
topAndBottom 0 0 0 0
left 0 0 0 0
right -0.106718 0 0 -0.106718
frontAndBack 0 0 0 0
sum -0.106718 0 0 -0.106718

Time = 32

DILUPBiCG:  Solving for Ux, Initial residual = 0.0104882, Final residual = 2.72159e-06, No Iterations 2
DILUPBiCG:  Solving for Uy, Initial residual = 0.0211504, Final residual = 3.42646e-06, No Iterations 2
DICPCG:  Solving for p_rgh, Initial residual = 0.0574991, Final residual = 0.000485722, No Iterations 11
time step continuity errors : sum local = 0.000734679, global = -3.10358e-17, cumulative = 4.40314e-16
DILUPBiCG:  Solving for epsilon, Initial residual = 0.0110665, Final residual = 3.36956e-05, No Iterations 2
DILUPBiCG:  Solving for k, Initial residual = 0.0339888, Final residual = 0.00010848, No Iterations 2
DICPCG:  Solving for G, Initial residual = 0.00987106, Final residual = 0.000687574, No Iterations 12
Before T+T solve
BiCG:  Solving for T+T, Initial residual = 0.00214338, Final residual = 0.000191539, No Iterations 1
Tres = -1.4234
TsRes = -0.104078
ExecutionTime = 0.09 s



Wall heat fluxes [W]
movingWall -0.298343 6.50521e-16 -0.28333 -0.581673
left 0.0599463 4.16232e-16 0.272668 0.332614
right -0.0398132 2.31269e-16 -0.06321 -0.103023
bottom -0.0732788 0 0.0738719 0.000593087
movingWall2 -0.248518 -3.73479e-18 0.255527 0.00700887
left2 -0.105125 -2.72351e-15 0.228774 0.123649
right2 -0.610258 -2.08523e-15 -0.698565 -1.30882
bottom2 -0.207013 0 0.214264 0.00725101
frontAndBack 0 0 0 0
sum -1.5224 -3.51445e-15 4.65237e-07 -1.5224


Wall heat fluxes [W]
topAndBottom 0 0 0 0
left 0 0 0 0
right -0.104078 0 0 -0.104078
frontAndBack 0 0 0 0
sum -0.104078 0 0 -0.104078

Time = 33

DILUPBiCG:  Solving for Ux, Initial residual = 0.0101295, Final residual = 2.71239e-06, No Iterations 2
DILUPBiCG:  Solving for Uy, Initial residual = 0.0200236, Final residual = 3.48446e-06, No Iterations 2
DICPCG:  Solving for p_rgh, Initial residual = 0.0568636, Final residual = 0.000439944, No Iterations 11
time step continuity errors : sum local = 0.000662776, global = -7.45124e-17, cumulative = 3.65802e-16
DILUPBiCG:  Solving for epsilon, Initial residual = 0.0107695, Final residual = 2.74835e-05, No Iterations 2
DILUPBiCG:  Solving for k, Initial residual = 0.0324418, Final residual = 0.000118868, No Iterations 2
DICPCG:  Solving for G, Initial residual = 0.00948335, Final residual = 0.000651263, No Iterations 12
Before T+T solve
BiCG:  Solving for T+T, Initial residual = 0.00210479, Final residual = 0.000189545, No Iterations 3
Tres = -1.43751
TsRes = -0.0970883
ExecutionTime = 0.1 s



Wall heat fluxes [W]
movingWall -0.290612 0 -0.282287 -0.572899
left 0.0648249 -9.01836e-16 0.273704 0.338529
right -0.0376447 -3.0887e-16 -0.0651537 -0.102798
bottom -0.0731617 0 0.0737367 0.000575006
movingWall2 -0.244221 -6.62219e-16 0.251083 0.00686201
left2 -0.0984955 -1.56934e-15 0.228569 0.130074
right2 -0.599344 -3.22262e-15 -0.688991 -1.28833
bottom2 -0.201838 0 0.20934 0.00750136
frontAndBack 0 0 0 0
sum -1.48049 -6.66488e-15 4.52598e-07 -1.48049


Wall heat fluxes [W]
topAndBottom 0 0 0 0
left 0 0 0 0
right -0.0970883 0 0 -0.0970883
frontAndBack 0 0 0 0
sum -0.0970883 0 0 -0.0970883

Time = 34

DILUPBiCG:  Solving for Ux, Initial residual = 0.0115131, Final residual = 4.66617e-06, No Iterations 2
DILUPBiCG:  Solving for Uy, Initial residual = 0.0212612, Final residual = 5.16589e-06, No Iterations 2
DICPCG:  Solving for p_rgh, Initial residual = 0.0772298, Final residual = 0.00072279, No Iterations 6
time step continuity errors : sum local = 0.00132059, global = -3.11682e-17, cumulative = 3.34634e-16
DILUPBiCG:  Solving for epsilon, Initial residual = 0.0103542, Final residual = 2.27271e-05, No Iterations 2
DILUPBiCG:  Solving for k, Initial residual = 0.030576, Final residual = 0.000138242, No Iterations 2
DICPCG:  Solving for G, Initial residual = 0.00926911, Final residual = 0.000619814, No Iterations 12
Before T+T solve
BiCG:  Solving for T+T, Initial residual = 0.00210304, Final residual = 0.000205188, No Iterations 1
Tres = -1.36484
TsRes = -0.0947122
ExecutionTime = 0.1 s



Wall heat fluxes [W]
movingWall -0.283257 -3.90313e-15 -0.281273 -0.564529
left 0.069731 7.97778e-16 0.274714 0.344445
right -0.0397138 -4.65028e-16 -0.067051 -0.106765
bottom -0.0731472 0 0.07361 0.000462823
movingWall2 -0.239173 -1.31989e-15 0.246886 0.00771262
left2 -0.0932575 4.31509e-15 0.22871 0.135453
right2 -0.588769 -5.68698e-16 -0.679464 -1.26823
bottom2 -0.196671 0 0.203868 0.00719741
frontAndBack 0 0 0 0
sum -1.44426 -1.14388e-15 4.71261e-07 -1.44426


Wall heat fluxes [W]
topAndBottom 0 0 0 0
left 0 0 0 0
right -0.0947122 0 0 -0.0947122
frontAndBack 0 0 0 0
sum -0.0947122 0 0 -0.0947122

Time = 35

DILUPBiCG:  Solving for Ux, Initial residual = 0.0109566, Final residual = 2.47067e-06, No Iterations 2
DILUPBiCG:  Solving for Uy, Initial residual = 0.0183982, Final residual = 3.69242e-06, No Iterations 2
DICPCG:  Solving for p_rgh, Initial residual = 0.0736804, Final residual = 0.0005748, No Iterations 11
time step continuity errors : sum local = 0.000840913, global = 1.31025e-16, cumulative = 4.65659e-16
DILUPBiCG:  Solving for epsilon, Initial residual = 0.00988557, Final residual = 2.06875e-05, No Iterations 2
DILUPBiCG:  Solving for k, Initial residual = 0.0285332, Final residual = 0.000161789, No Iterations 2
DICPCG:  Solving for G, Initial residual = 0.0110384, Final residual = 0.000893887, No Iterations 12
Before T+T solve
BiCG:  Solving for T+T, Initial residual = 0.00204697, Final residual = 0.000189579, No Iterations 1
Tres = -1.33701
TsRes = -0.0923782
ExecutionTime = 0.1 s



Wall heat fluxes [W]
movingWall -0.275953 0 -0.279605 -0.555558
left 0.0747635 1.10995e-15 0.276369 0.351132
right -0.0401294 7.73352e-16 -0.0711199 -0.111249
bottom -0.0735422 0 0.0743566 0.000814425
movingWall2 -0.234406 1.99362e-15 0.242667 0.00826082
left2 -0.0871994 3.24914e-15 0.224917 0.137718
right2 -0.578103 1.51653e-15 -0.668268 -1.24637
bottom2 -0.192542 0 0.200684 0.00814182
frontAndBack 0 0 0 0
sum -1.40711 8.6426e-15 2.36109e-07 -1.40711


Wall heat fluxes [W]
topAndBottom 0 0 0 0
left 0 0 0 0
right -0.0923782 0 0 -0.0923782
frontAndBack 0 0 0 0
sum -0.0923782 0 0 -0.0923782

Time = 36

DILUPBiCG:  Solving for Ux, Initial residual = 0.0110707, Final residual = 2.18113e-06, No Iterations 2
DILUPBiCG:  Solving for Uy, Initial residual = 0.0173471, Final residual = 4.24931e-06, No Iterations 2
DICPCG:  Solving for p_rgh, Initial residual = 0.0589537, Final residual = 0.000572877, No Iterations 6
time step continuity errors : sum local = 0.000950523, global = -3.36828e-17, cumulative = 4.31976e-16
DILUPBiCG:  Solving for epsilon, Initial residual = 0.00935231, Final residual = 2.26571e-05, No Iterations 2
DILUPBiCG:  Solving for k, Initial residual = 0.0266771, Final residual = 0.000198304, No Iterations 2
DICPCG:  Solving for G, Initial residual = 0.0110752, Final residual = 0.000859565, No Iterations 11
Before T+T solve
BiCG:  Solving for T+T, Initial residual = 0.00199342, Final residual = 0.00016973, No Iterations 1
Tres = -1.29312
TsRes = -0.0901042
ExecutionTime = 0.1 s



Wall heat fluxes [W]
movingWall -0.268879 0 -0.278534 -0.547412
left 0.0798993 -1.00589e-15 0.277437 0.357336
right -0.0407827 -7.61289e-17 -0.0727146 -0.113497
bottom -0.0734076 0 0.0738106 0.000402968
movingWall2 -0.229486 -1.33747e-15 0.237594 0.00810831
left2 -0.0833999 1.08515e-15 0.223379 0.139979
right2 -0.567453 -1.1374e-15 -0.656822 -1.22427
bottom2 -0.188022 0 0.195848 0.00782602
frontAndBack 0 0 0 0
sum -1.37153 -2.47175e-15 -1.06338e-06 -1.37153


Wall heat fluxes [W]
topAndBottom 0 0 0 0
left 0 0 0 0
right -0.0901042 0 0 -0.0901042
frontAndBack 0 0 0 0
sum -0.0901042 0 0 -0.0901042

Time = 37

DILUPBiCG:  Solving for Ux, Initial residual = 0.0100697, Final residual = 2.05675e-06, No Iterations 2
DILUPBiCG:  Solving for Uy, Initial residual = 0.0163044, Final residual = 5.08245e-06, No Iterations 2
DICPCG:  Solving for p_rgh, Initial residual = 0.0523827, Final residual = 0.000407464, No Iterations 11
time step continuity errors : sum local = 0.000574807, global = 2.68007e-17, cumulative = 4.58777e-16
DILUPBiCG:  Solving for epsilon, Initial residual = 0.00889511, Final residual = 2.76214e-05, No Iterations 2
DILUPBiCG:  Solving for k, Initial residual = 0.0249951, Final residual = 5.49746e-05, No Iterations 3
DICPCG:  Solving for G, Initial residual = 0.0109868, Final residual = 0.000820907, No Iterations 12
Before T+T solve
BiCG:  Solving for T+T, Initial residual = 0.00194651, Final residual = 0.00016647, No Iterations 1
Tres = -1.26119
TsRes = -0.0878856
ExecutionTime = 0.11 s



Wall heat fluxes [W]
movingWall -0.262193 3.25261e-15 -0.277362 -0.539554
left 0.0849879 1.7343e-16 0.2786 0.363588
right -0.0410183 -1.54688e-16 -0.0754179 -0.116436
bottom -0.0735488 0 0.0741801 0.000631377
movingWall2 -0.225045 6.71712e-16 0.233105 0.00805954
left2 -0.0798811 3.35011e-16 0.220081 0.1402
right2 -0.556772 -1.89566e-15 -0.645106 -1.20188
bottom2 -0.183848 0 0.19192 0.00807166
frontAndBack 0 0 0 0
sum -1.33732 2.38241e-15 2.27503e-07 -1.33732


Wall heat fluxes [W]
topAndBottom 0 0 0 0
left 0 0 0 0
right -0.0878856 0 0 -0.0878856
frontAndBack 0 0 0 0
sum -0.0878856 0 0 -0.0878856

Time = 38

DILUPBiCG:  Solving for Ux, Initial residual = 0.00991874, Final residual = 2.30972e-06, No Iterations 2
DILUPBiCG:  Solving for Uy, Initial residual = 0.015189, Final residual = 6.17338e-06, No Iterations 2
DICPCG:  Solving for p_rgh, Initial residual = 0.0463442, Final residual = 0.000270088, No Iterations 6
time step continuity errors : sum local = 0.00046448, global = -5.71747e-17, cumulative = 4.01602e-16
DILUPBiCG:  Solving for epsilon, Initial residual = 0.00860141, Final residual = 3.62613e-05, No Iterations 2
DILUPBiCG:  Solving for k, Initial residual = 0.023564, Final residual = 0.00013108, No Iterations 2
DICPCG:  Solving for G, Initial residual = 0.0103061, Final residual = 0.000627648, No Iterations 12
Before T+T solve
BiCG:  Solving for T+T, Initial residual = 0.0019046, Final residual = 0.000163808, No Iterations 1
Tres = -1.22984
TsRes = -0.0857219
ExecutionTime = 0.11 s



Wall heat fluxes [W]
movingWall -0.25582 -1.30104e-15 -0.27624 -0.532061
left 0.0899896 1.52618e-15 0.279716 0.369706
right -0.0412636 5.41689e-16 -0.0775236 -0.118787
bottom -0.0735071 0 0.0740475 0.000540425
movingWall2 -0.220581 -3.34388e-16 0.228239 0.00765738
left2 -0.0771586 -2.09813e-15 0.21859 0.141432
right2 -0.546139 -2.27479e-15 -0.633857 -1.18
bottom2 -0.179344 0 0.187029 0.00768501
frontAndBack 0 0 0 0
sum -1.30382 -3.94048e-15 6.29176e-07 -1.30382


Wall heat fluxes [W]
topAndBottom 0 0 0 0
left 0 0 0 0
right -0.0857219 0 0 -0.0857219
frontAndBack 0 0 0 0
sum -0.0857219 0 0 -0.0857219

Time = 39

DILUPBiCG:  Solving for Ux, Initial residual = 0.0096397, Final residual = 2.24019e-06, No Iterations 2
DILUPBiCG:  Solving for Uy, Initial residual = 0.0142304, Final residual = 6.65614e-06, No Iterations 2
DICPCG:  Solving for p_rgh, Initial residual = 0.0425405, Final residual = 0.00037209, No Iterations 6
time step continuity errors : sum local = 0.000664235, global = -1.19081e-16, cumulative = 2.82521e-16
DILUPBiCG:  Solving for epsilon, Initial residual = 0.00835763, Final residual = 5.02566e-05, No Iterations 2
DILUPBiCG:  Solving for k, Initial residual = 0.0221706, Final residual = 7.48324e-05, No Iterations 2
DICPCG:  Solving for G, Initial residual = 0.00963794, Final residual = 0.000608236, No Iterations 12
Before T+T solve
BiCG:  Solving for T+T, Initial residual = 0.00186932, Final residual = 0.000161597, No Iterations 1
Tres = -1.19996
TsRes = -0.0836117
ExecutionTime = 0.11 s



Wall heat fluxes [W]
movingWall -0.249757 -3.90313e-15 -0.275113 -0.52487
left 0.0947695 2.77488e-16 0.280837 0.375607
right -0.0413607 -1.53995e-16 -0.0798242 -0.121185
bottom -0.0734707 0 0.0741002 0.000629539
movingWall2 -0.216392 1.34737e-15 0.223727 0.00733563
left2 -0.0746753 -4.20465e-15 0.216874 0.142199
right2 -0.53611 -1.70609e-15 -0.623063 -1.15917
bottom2 -0.174865 0 0.182462 0.00759731
frontAndBack 0 0 0 0
sum -1.27186 -8.34301e-15 5.6776e-07 -1.27186


Wall heat fluxes [W]
topAndBottom 0 0 0 0
left 0 0 0 0
right -0.0836117 0 0 -0.0836117
frontAndBack 0 0 0 0
sum -0.0836117 0 0 -0.0836117

Time = 40

DILUPBiCG:  Solving for Ux, Initial residual = 0.00952111, Final residual = 2.23236e-06, No Iterations 2
DILUPBiCG:  Solving for Uy, Initial residual = 0.0135023, Final residual = 6.93854e-06, No Iterations 2
DICPCG:  Solving for p_rgh, Initial residual = 0.0395974, Final residual = 0.000208317, No Iterations 11
time step continuity errors : sum local = 0.00026591, global = -4.76456e-17, cumulative = 2.34876e-16
DILUPBiCG:  Solving for epsilon, Initial residual = 0.00807972, Final residual = 7.24287e-05, No Iterations 2
DILUPBiCG:  Solving for k, Initial residual = 0.0209922, Final residual = 8.04509e-05, No Iterations 2
DICPCG:  Solving for G, Initial residual = 0.0090986, Final residual = 0.000586167, No Iterations 12
Before T+T solve
BiCG:  Solving for T+T, Initial residual = 0.00183448, Final residual = 0.000159219, No Iterations 1
Tres = -1.17157
TsRes = -0.0815535
ExecutionTime = 0.11 s



Wall heat fluxes [W]
movingWall -0.244127 -1.30104e-15 -0.274013 -0.518139
left 0.0992887 -1.38744e-16 0.281933 0.381221
right -0.0414473 4.67654e-16 -0.0818693 -0.123317
bottom -0.0732995 0 0.0739496 0.000650115
movingWall2 -0.212417 5.10529e-19 0.219367 0.00695003
left2 -0.0726014 -5.03799e-16 0.215815 0.143213
right2 -0.526846 -2.65392e-15 -0.61276 -1.13961
bottom2 -0.17025 0 0.177579 0.00732873
frontAndBack 0 0 0 0
sum -1.2417 -4.12934e-15 5.35072e-07 -1.2417


Wall heat fluxes [W]
topAndBottom 0 0 0 0
left 0 0 0 0
right -0.0815535 0 0 -0.0815535
frontAndBack 0 0 0 0
sum -0.0815535 0 0 -0.0815535

Time = 41

DILUPBiCG:  Solving for Ux, Initial residual = 0.0093082, Final residual = 2.12941e-06, No Iterations 2
DILUPBiCG:  Solving for Uy, Initial residual = 0.0128057, Final residual = 7.16134e-06, No Iterations 2
DICPCG:  Solving for p_rgh, Initial residual = 0.0372358, Final residual = 0.000143231, No Iterations 6
time step continuity errors : sum local = 0.000186189, global = -1.24673e-16, cumulative = 1.10203e-16
DILUPBiCG:  Solving for epsilon, Initial residual = 0.00783807, Final residual = 1.72255e-06, No Iterations 3
DILUPBiCG:  Solving for k, Initial residual = 0.0198582, Final residual = 0.000114051, No Iterations 2
DICPCG:  Solving for G, Initial residual = 0.0086359, Final residual = 0.000584978, No Iterations 12
Before T+T solve
BiCG:  Solving for T+T, Initial residual = 0.00179744, Final residual = 0.000156578, No Iterations 1
Tres = -1.14369
TsRes = -0.0795452
ExecutionTime = 0.12 s



Wall heat fluxes [W]
movingWall -0.238926 -3.90313e-15 -0.272909 -0.511835
left 0.103545 -2.08116e-15 0.283032 0.386577
right -0.0414773 -7.94725e-17 -0.0838837 -0.125361
bottom -0.0730743 0 0.0737612 0.000686817
movingWall2 -0.208723 -1.69183e-15 0.215333 0.00661066
left2 -0.0706876 -6.74463e-16 0.214779 0.144091
right2 -0.517177 -1.89566e-15 -0.602902 -1.12008
bottom2 -0.165619 0 0.17279 0.00717158
frontAndBack 0 0 0 0
sum -1.21214 -1.03257e-14 4.4517e-07 -1.21214


Wall heat fluxes [W]
topAndBottom 0 0 0 0
left 0 0 0 0
right -0.0795452 0 0 -0.0795452
frontAndBack 0 0 0 0
sum -0.0795452 0 0 -0.0795452

Time = 42

DILUPBiCG:  Solving for Ux, Initial residual = 0.00909911, Final residual = 2.09212e-06, No Iterations 2
DILUPBiCG:  Solving for Uy, Initial residual = 0.0122401, Final residual = 6.53627e-06, No Iterations 2
DICPCG:  Solving for p_rgh, Initial residual = 0.0355043, Final residual = 0.000149366, No Iterations 6
time step continuity errors : sum local = 0.00022751, global = 1.8595e-17, cumulative = 1.28798e-16
DILUPBiCG:  Solving for epsilon, Initial residual = 0.00769827, Final residual = 1.69268e-06, No Iterations 3
DILUPBiCG:  Solving for k, Initial residual = 0.019048, Final residual = 0.000185768, No Iterations 2
DICPCG:  Solving for G, Initial residual = 0.00819736, Final residual = 0.000553227, No Iterations 12
Before T+T solve
BiCG:  Solving for T+T, Initial residual = 0.0017606, Final residual = 0.000153759, No Iterations 1
Tres = -1.11643
TsRes = -0.0775854
ExecutionTime = 0.12 s



Wall heat fluxes [W]
movingWall -0.23413 6.50521e-16 -0.271829 -0.505959
left 0.10747 1.04058e-15 0.284109 0.391579
right -0.0414953 -3.94223e-19 -0.0857562 -0.127251
bottom -0.0727506 0 0.0734768 0.000726159
movingWall2 -0.205267 6.78385e-16 0.211549 0.00628134
left2 -0.0689601 4.18633e-15 0.214041 0.145081
right2 -0.507283 -2.84349e-15 -0.593475 -1.10076
bottom2 -0.160923 0 0.167886 0.00696296
frontAndBack 0 0 0 0
sum -1.18334 3.71193e-15 4.21647e-07 -1.18334


Wall heat fluxes [W]
topAndBottom 0 0 0 0
left 0 0 0 0
right -0.0775854 0 0 -0.0775854
frontAndBack 0 0 0 0
sum -0.0775854 0 0 -0.0775854

Time = 43

DILUPBiCG:  Solving for Ux, Initial residual = 0.00883391, Final residual = 2.02332e-06, No Iterations 2
DILUPBiCG:  Solving for Uy, Initial residual = 0.011752, Final residual = 6.02451e-06, No Iterations 2
DICPCG:  Solving for p_rgh, Initial residual = 0.0333251, Final residual = 0.000167566, No Iterations 6
time step continuity errors : sum local = 0.000271917, global = -1.0257e-17, cumulative = 1.18541e-16
DILUPBiCG:  Solving for epsilon, Initial residual = 0.00758022, Final residual = 1.67062e-06, No Iterations 3
DILUPBiCG:  Solving for k, Initial residual = 0.0183999, Final residual = 8.47081e-06, No Iterations 3
DICPCG:  Solving for G, Initial residual = 0.00780647, Final residual = 0.000538054, No Iterations 12
Before T+T solve
BiCG:  Solving for T+T, Initial residual = 0.00172648, Final residual = 0.000150593, No Iterations 1
Tres = -1.0902
TsRes = -0.0756727
ExecutionTime = 0.12 s



Wall heat fluxes [W]
movingWall -0.229847 1.95156e-15 -0.270749 -0.500596
left 0.111113 6.59034e-16 0.285186 0.396299
right -0.0414951 7.08176e-19 -0.0875498 -0.129045
bottom -0.0723559 0 0.0731137 0.000757818
movingWall2 -0.202085 -2.46626e-18 0.208045 0.00595978
left2 -0.0673279 8.67345e-17 0.213359 0.146032
right2 -0.497392 -3.03306e-15 -0.584426 -1.08182
bottom2 -0.156242 0 0.163022 0.00677993
frontAndBack 0 0 0 0
sum -1.15563 -3.37481e-16 3.63576e-07 -1.15563


Wall heat fluxes [W]
topAndBottom 0 0 0 0
left 0 0 0 0
right -0.0756727 0 0 -0.0756727
frontAndBack 0 0 0 0
sum -0.0756727 0 0 -0.0756727

Time = 44

DILUPBiCG:  Solving for Ux, Initial residual = 0.00863955, Final residual = 1.96916e-06, No Iterations 2
DILUPBiCG:  Solving for Uy, Initial residual = 0.0113619, Final residual = 5.35157e-06, No Iterations 2
DICPCG:  Solving for p_rgh, Initial residual = 0.0310555, Final residual = 0.000199698, No Iterations 6
time step continuity errors : sum local = 0.000330679, global = 3.62636e-17, cumulative = 1.54805e-16
DILUPBiCG:  Solving for epsilon, Initial residual = 0.00744707, Final residual = 1.51993e-06, No Iterations 3
DILUPBiCG:  Solving for k, Initial residual = 0.0178298, Final residual = 7.68935e-06, No Iterations 3
DICPCG:  Solving for G, Initial residual = 0.00744128, Final residual = 0.000512747, No Iterations 12
Before T+T solve
BiCG:  Solving for T+T, Initial residual = 0.0016933, Final residual = 0.000147129, No Iterations 1
Tres = -1.06476
TsRes = -0.0738061
ExecutionTime = 0.12 s



Wall heat fluxes [W]
movingWall -0.225858 -9.75782e-16 -0.26968 -0.495538
left 0.11439 6.59034e-16 0.286253 0.400643
right -0.0414915 3.10517e-16 -0.0892513 -0.130743
bottom -0.071875 0 0.0726779 0.00080295
movingWall2 -0.199106 -3.4365e-16 0.204817 0.00571042
left2 -0.0657521 1.14424e-15 0.212771 0.147019
right2 -0.487543 3.79132e-16 -0.575745 -1.06329
bottom2 -0.151517 0 0.158157 0.00664056
frontAndBack 0 0 0 0
sum -1.12875 1.17349e-15 3.37749e-07 -1.12875


Wall heat fluxes [W]
topAndBottom 0 0 0 0
left 0 0 0 0
right -0.0738061 0 0 -0.0738061
frontAndBack 0 0 0 0
sum -0.0738061 0 0 -0.0738061

Time = 45

DILUPBiCG:  Solving for Ux, Initial residual = 0.00846106, Final residual = 1.94216e-06, No Iterations 2
DILUPBiCG:  Solving for Uy, Initial residual = 0.0110335, Final residual = 4.90267e-06, No Iterations 2
DICPCG:  Solving for p_rgh, Initial residual = 0.0291945, Final residual = 0.000252147, No Iterations 6
time step continuity errors : sum local = 0.00041931, global = 8.43724e-17, cumulative = 2.39177e-16
DILUPBiCG:  Solving for epsilon, Initial residual = 0.00737336, Final residual = 1.45744e-06, No Iterations 3
DILUPBiCG:  Solving for k, Initial residual = 0.0173344, Final residual = 7.27005e-06, No Iterations 3
DICPCG:  Solving for G, Initial residual = 0.00714593, Final residual = 0.000494802, No Iterations 12
Before T+T solve
BiCG:  Solving for T+T, Initial residual = 0.00166042, Final residual = 0.000143839, No Iterations 1
Tres = -1.04024
TsRes = -0.0719846
ExecutionTime = 0.13 s



Wall heat fluxes [W]
movingWall -0.222226 9.75782e-16 -0.268607 -0.490834
left 0.117346 1.17932e-15 0.287323 0.404669
right -0.0414899 3.09936e-16 -0.0908702 -0.13236
bottom -0.071318 0 0.0721546 0.000836639
movingWall2 -0.196327 3.39949e-16 0.201801 0.00547398
left2 -0.0642275 -2.11527e-16 0.212264 0.148036
right2 -0.477803 1.70609e-15 -0.56735 -1.04515
bottom2 -0.146775 0 0.153285 0.00651011
frontAndBack 0 0 0 0
sum -1.10282 4.29956e-15 3.11116e-07 -1.10282


Wall heat fluxes [W]
topAndBottom 0 0 0 0
left 0 0 0 0
right -0.0719846 0 0 -0.0719846
frontAndBack 0 0 0 0
sum -0.0719846 0 0 -0.0719846

Time = 46

DILUPBiCG:  Solving for Ux, Initial residual = 0.00829829, Final residual = 1.91651e-06, No Iterations 2
DILUPBiCG:  Solving for Uy, Initial residual = 0.0108482, Final residual = 4.50562e-06, No Iterations 2
DICPCG:  Solving for p_rgh, Initial residual = 0.0283565, Final residual = 0.000276255, No Iterations 10
time step continuity errors : sum local = 0.000347844, global = 2.21684e-17, cumulative = 2.61346e-16
DILUPBiCG:  Solving for epsilon, Initial residual = 0.00733935, Final residual = 1.44403e-06, No Iterations 3
DILUPBiCG:  Solving for k, Initial residual = 0.0169326, Final residual = 6.99804e-06, No Iterations 3
DICPCG:  Solving for G, Initial residual = 0.00689001, Final residual = 0.000477184, No Iterations 12
Before T+T solve
BiCG:  Solving for T+T, Initial residual = 0.00162931, Final residual = 0.000140819, No Iterations 1
Tres = -1.01659
TsRes = -0.0702075
ExecutionTime = 0.13 s



Wall heat fluxes [W]
movingWall -0.21892 -6.50521e-16 -0.267534 -0.486453
left 0.120005 1.00589e-15 0.288395 0.4084
right -0.0414819 -1.53879e-16 -0.0924275 -0.133909
bottom -0.0707039 0 0.0715661 0.000862192
movingWall2 -0.19373 -5.17551e-16 0.199008 0.00527783
left2 -0.0627703 3.98241e-17 0.211772 0.149001
right2 -0.468203 7.58264e-16 -0.559205 -1.02741
bottom2 -0.142016 0 0.148426 0.00641001
frontAndBack 0 0 0 0
sum -1.07782 4.82031e-16 2.93896e-07 -1.07782


Wall heat fluxes [W]
topAndBottom 0 0 0 0
left 0 0 0 0
right -0.0702075 0 0 -0.0702075
frontAndBack 0 0 0 0
sum -0.0702075 0 0 -0.0702075

Time = 47

DILUPBiCG:  Solving for Ux, Initial residual = 0.00817438, Final residual = 1.89597e-06, No Iterations 2
DILUPBiCG:  Solving for Uy, Initial residual = 0.0106702, Final residual = 4.32571e-06, No Iterations 2
DICPCG:  Solving for p_rgh, Initial residual = 0.0265043, Final residual = 0.00019154, No Iterations 6
time step continuity errors : sum local = 0.000280072, global = 7.04096e-17, cumulative = 3.31755e-16
DILUPBiCG:  Solving for epsilon, Initial residual = 0.00737405, Final residual = 1.49072e-06, No Iterations 3
DILUPBiCG:  Solving for k, Initial residual = 0.0166571, Final residual = 7.19069e-06, No Iterations 3
DICPCG:  Solving for G, Initial residual = 0.00666541, Final residual = 0.000460591, No Iterations 12
Before T+T solve
BiCG:  Solving for T+T, Initial residual = 0.00160144, Final residual = 0.000137825, No Iterations 1
Tres = -0.993761
TsRes = -0.0684738
ExecutionTime = 0.13 s



Wall heat fluxes [W]
movingWall -0.215907 3.25261e-16 -0.266462 -0.482369
left 0.122383 3.4686e-17 0.289465 0.411848
right -0.0414599 -2.36223e-16 -0.0939275 -0.135387
bottom -0.070031 0 0.0709246 0.000893572
movingWall2 -0.191284 1.71169e-15 0.196397 0.00511289
left2 -0.0613294 -6.39199e-16 0.211319 0.149989
right2 -0.458778 2.46436e-15 -0.551271 -1.01005
bottom2 -0.13723 0 0.143556 0.00632589
frontAndBack 0 0 0 0
sum -1.05364 3.66058e-15 2.82075e-07 -1.05364


Wall heat fluxes [W]
topAndBottom 0 0 0 0
left 0 0 0 0
right -0.0684738 0 0 -0.0684738
frontAndBack 0 0 0 0
sum -0.0684738 0 0 -0.0684738

Time = 48

DILUPBiCG:  Solving for Ux, Initial residual = 0.00806945, Final residual = 1.86663e-06, No Iterations 2
DILUPBiCG:  Solving for Uy, Initial residual = 0.0105628, Final residual = 4.27635e-06, No Iterations 2
DICPCG:  Solving for p_rgh, Initial residual = 0.0258231, Final residual = 0.000200797, No Iterations 6
time step continuity errors : sum local = 0.000299239, global = 2.17714e-17, cumulative = 3.53527e-16
DILUPBiCG:  Solving for epsilon, Initial residual = 0.0074231, Final residual = 1.60958e-06, No Iterations 3
DILUPBiCG:  Solving for k, Initial residual = 0.0165232, Final residual = 6.93426e-06, No Iterations 3
DICPCG:  Solving for G, Initial residual = 0.00647096, Final residual = 0.000443179, No Iterations 12
Before T+T solve
BiCG:  Solving for T+T, Initial residual = 0.00157878, Final residual = 0.000135646, No Iterations 1
Tres = -0.972597
TsRes = -0.0667833
ExecutionTime = 0.13 s



Wall heat fluxes [W]
movingWall -0.213151 3.57787e-15 -0.265388 -0.478539
left 0.124511 -1.10995e-15 0.290538 0.415049
right -0.0414312 3.11559e-16 -0.0953738 -0.136805
bottom -0.0693177 0 0.0702235 0.00090584
movingWall2 -0.18896 6.84532e-16 0.193934 0.0049741
left2 -0.0599058 -3.4029e-16 0.210911 0.151005
right2 -0.450453 -3.79132e-16 -0.543518 -0.993972
bottom2 -0.132409 0 0.138673 0.0062642
frontAndBack 0 0 0 0
sum -1.03112 2.74458e-15 2.82083e-07 -1.03112


Wall heat fluxes [W]
topAndBottom 0 0 0 0
left 0 0 0 0
right -0.0667833 0 0 -0.0667833
frontAndBack 0 0 0 0
sum -0.0667833 0 0 -0.0667833

Time = 49

DILUPBiCG:  Solving for Ux, Initial residual = 0.00795181, Final residual = 1.81683e-06, No Iterations 2
DILUPBiCG:  Solving for Uy, Initial residual = 0.0104167, Final residual = 4.22871e-06, No Iterations 2
DICPCG:  Solving for p_rgh, Initial residual = 0.0259579, Final residual = 0.000241646, No Iterations 6
time step continuity errors : sum local = 0.00037654, global = -1.03232e-17, cumulative = 3.43203e-16
DILUPBiCG:  Solving for epsilon, Initial residual = 0.0074075, Final residual = 6.88187e-05, No Iterations 2
DILUPBiCG:  Solving for k, Initial residual = 0.0164979, Final residual = 6.40493e-06, No Iterations 3
DICPCG:  Solving for G, Initial residual = 0.00630751, Final residual = 0.000427878, No Iterations 12
Before T+T solve
BiCG:  Solving for T+T, Initial residual = 0.00155333, Final residual = 0.000133384, No Iterations 1
Tres = -0.952892
TsRes = -0.0651343
ExecutionTime = 0.14 s



Wall heat fluxes [W]
movingWall -0.210617 -2.27682e-15 -0.264314 -0.474931
left 0.12642 1.21401e-15 0.291611 0.41803
right -0.0413892 1.5552e-16 -0.0967954 -0.138185
bottom -0.0685807 0 0.0694981 0.000917362
movingWall2 -0.18674 1.20192e-15 0.191611 0.00487101
left2 -0.0584887 -7.27232e-16 0.210516 0.152027
right2 -0.443127 0 -0.535904 -0.97903
bottom2 -0.12753 0 0.133777 0.00624657
frontAndBack 0 0 0 0
sum -1.01005 -4.32604e-16 2.80643e-07 -1.01005


Wall heat fluxes [W]
topAndBottom 0 0 0 0
left 0 0 0 0
right -0.0651343 0 0 -0.0651343
frontAndBack 0 0 0 0
sum -0.0651343 0 0 -0.0651343

Time = 50

DILUPBiCG:  Solving for Ux, Initial residual = 0.00787006, Final residual = 1.77413e-06, No Iterations 2
DILUPBiCG:  Solving for Uy, Initial residual = 0.0103107, Final residual = 4.15734e-06, No Iterations 2
DICPCG:  Solving for p_rgh, Initial residual = 0.0258313, Final residual = 0.000192077, No Iterations 7
time step continuity errors : sum local = 0.000336779, global = -1.70067e-17, cumulative = 3.26197e-16
DILUPBiCG:  Solving for epsilon, Initial residual = 0.00745422, Final residual = 6.38931e-05, No Iterations 2
DILUPBiCG:  Solving for k, Initial residual = 0.0164147, Final residual = 6.5916e-06, No Iterations 3
DICPCG:  Solving for G, Initial residual = 0.00618023, Final residual = 0.000408506, No Iterations 12
Before T+T solve
BiCG:  Solving for T+T, Initial residual = 0.00152586, Final residual = 0.000130833, No Iterations 1
Tres = -0.933805
TsRes = -0.0635255
ExecutionTime = 0.14 s



Wall heat fluxes [W]
movingWall -0.208269 -9.75782e-16 -0.26324 -0.471509
left 0.12814 -1.66493e-15 0.292683 0.420822
right -0.041337 1.56e-16 -0.098191 -0.139528
bottom -0.0678301 0 0.0687487 0.000918633
movingWall2 -0.184604 1.03206e-15 0.189402 0.00479798
left2 -0.0570853 -1.73843e-16 0.210155 0.15307
right2 -0.436066 -1.1374e-15 -0.528381 -0.964446
bottom2 -0.122561 0 0.128823 0.00626271
frontAndBack 0 0 0 0
sum -0.989612 -2.76389e-15 2.88389e-07 -0.989612


Wall heat fluxes [W]
topAndBottom 0 0 0 0
left 0 0 0 0
right -0.0635255 0 0 -0.0635255
frontAndBack 0 0 0 0
sum -0.0635255 0 0 -0.0635255

Time = 51

DILUPBiCG:  Solving for Ux, Initial residual = 0.00777315, Final residual = 1.73672e-06, No Iterations 2
DILUPBiCG:  Solving for Uy, Initial residual = 0.0102126, Final residual = 4.01586e-06, No Iterations 2
DICPCG:  Solving for p_rgh, Initial residual = 0.027162, Final residual = 0.000227669, No Iterations 7
time step continuity errors : sum local = 0.000398736, global = 1.58819e-17, cumulative = 3.42079e-16
DILUPBiCG:  Solving for epsilon, Initial residual = 0.00746069, Final residual = 5.9836e-05, No Iterations 2
DILUPBiCG:  Solving for k, Initial residual = 0.0164236, Final residual = 7.77433e-06, No Iterations 3
DICPCG:  Solving for G, Initial residual = 0.00608173, Final residual = 0.000379023, No Iterations 12
Before T+T solve
BiCG:  Solving for T+T, Initial residual = 0.00150041, Final residual = 0.000128086, No Iterations 1
Tres = -0.914939
TsRes = -0.0619557
ExecutionTime = 0.14 s



Wall heat fluxes [W]
movingWall -0.206083 2.27682e-15 -0.26217 -0.468252
left 0.129713 -1.21401e-15 0.293752 0.423465
right -0.041273 7.89216e-17 -0.0995776 -0.140851
bottom -0.067084 0 0.0679948 0.000910838
movingWall2 -0.182541 5.14406e-16 0.187293 0.00475137
left2 -0.0556955 6.86206e-16 0.209821 0.154125
right2 -0.428971 -7.58264e-16 -0.520904 -0.949876
bottom2 -0.117465 0 0.123791 0.00632645
frontAndBack 0 0 0 0
sum -0.9694 1.58408e-15 2.98525e-07 -0.969399


Wall heat fluxes [W]
topAndBottom 0 0 0 0
left 0 0 0 0
right -0.0619557 0 0 -0.0619557
frontAndBack 0 0 0 0
sum -0.0619557 0 0 -0.0619557

Time = 52

DILUPBiCG:  Solving for Ux, Initial residual = 0.00765493, Final residual = 1.68308e-06, No Iterations 2
DILUPBiCG:  Solving for Uy, Initial residual = 0.0100929, Final residual = 4.27179e-06, No Iterations 2
DICPCG:  Solving for p_rgh, Initial residual = 0.0282195, Final residual = 0.000239906, No Iterations 7
time step continuity errors : sum local = 0.000414092, global = 2.40875e-17, cumulative = 3.66166e-16
DILUPBiCG:  Solving for epsilon, Initial residual = 0.00753759, Final residual = 5.61888e-05, No Iterations 2
[...]
time step continuity errors : sum local = 2.0688e-10, global = 4.53047e-17, cumulative = -1.48233e-15
DILUPBiCG:  Solving for epsilon, Initial residual = 7.39859e-09, Final residual = 2.34346e-11, No Iterations 2
DILUPBiCG:  Solving for k, Initial residual = 1.21726e-08, Final residual = 2.92022e-12, No Iterations 3
DICPCG:  Solving for G, Initial residual = 1.79446e-08, Final residual = 1.27683e-09, No Iterations 12
Before T+T solve
BiCG:  Solving for T+T, Initial residual = 1.11552e-08, Final residual = 3.41308e-10, No Iterations 1
Tres = -6.67381e-06
TsRes = -5.65024e-12
ExecutionTime = 2.6 s



Wall heat fluxes [W]
movingWall -0.124795 -2.27682e-15 -0.21375 -0.338545
left 0.2036 2.49739e-15 0.34206 0.54566
right -0.0333822 -8.07099e-17 -0.173733 -0.207115
bottom -0.0454229 0 0.0454229 1.19188e-09
movingWall2 -0.000668087 3.63761e-18 0.000668113 2.55676e-08
left2 0.0433908 -4.52752e-17 0.163724 0.207115
right2 -0.0561771 4.73915e-17 -0.150944 -0.207121
bottom2 0.0134479 0 -0.0134479 2.30086e-08
frontAndBack 0 0 0 0
sum -6.65524e-06 1.45611e-16 1.49977e-12 -6.65524e-06


Wall heat fluxes [W]
topAndBottom 0 0 0 0
left 0 0 0 0
right -5.65024e-12 0 0 -5.65024e-12
frontAndBack 0 0 0 0
sum -5.65024e-12 0 0 -5.65024e-12

Time = 989

DILUPBiCG:  Solving for Ux, Initial residual = 1.25447e-08, Final residual = 1.01332e-10, No Iterations 1
DILUPBiCG:  Solving for Uy, Initial residual = 9.49044e-09, Final residual = 5.14976e-11, No Iterations 1
DICPCG:  Solving for p_rgh, Initial residual = 3.23662e-08, Final residual = 1.41216e-10, No Iterations 6
time step continuity errors : sum local = 2.26103e-10, global = 1.70151e-17, cumulative = -1.46531e-15
DILUPBiCG:  Solving for epsilon, Initial residual = 7.30933e-09, Final residual = 2.31405e-11, No Iterations 2
DILUPBiCG:  Solving for k, Initial residual = 1.20261e-08, Final residual = 2.88482e-12, No Iterations 3
DICPCG:  Solving for G, Initial residual = 1.77256e-08, Final residual = 1.26134e-09, No Iterations 12
Before T+T solve
BiCG:  Solving for T+T, Initial residual = 1.10197e-08, Final residual = 3.37162e-10, No Iterations 1
Tres = -6.5927e-06
TsRes = -5.46834e-12
ExecutionTime = 2.6 s



Wall heat fluxes [W]
movingWall -0.124795 -1.13841e-15 -0.21375 -0.338545
left 0.2036 -1.7343e-15 0.34206 0.54566
right -0.0333822 -7.32623e-19 -0.173733 -0.207115
bottom -0.0454229 0 0.0454229 1.17823e-09
movingWall2 -0.00066807 -2.83623e-17 0.000668095 2.52567e-08
left2 0.0433908 2.50625e-16 0.163724 0.207115
right2 -0.0561771 -4.73915e-17 -0.150944 -0.207121
bottom2 0.0134479 0 -0.0134479 2.27288e-08
frontAndBack 0 0 0 0
sum -6.57435e-06 -2.69857e-15 1.52731e-12 -6.57435e-06


Wall heat fluxes [W]
topAndBottom 0 0 0 0
left 0 0 0 0
right -5.46834e-12 0 0 -5.46834e-12
frontAndBack 0 0 0 0
sum -5.46834e-12 0 0 -5.46834e-12

Time = 990

DILUPBiCG:  Solving for Ux, Initial residual = 1.23897e-08, Final residual = 1.00223e-10, No Iterations 1
DILUPBiCG:  Solving for Uy, Initial residual = 9.38e-09, Final residual = 5.1027e-11, No Iterations 1
DICPCG:  Solving for p_rgh, Initial residual = 3.20246e-08, Final residual = 1.79492e-10, No Iterations 6
time step continuity errors : sum local = 3.1678e-10, global = 6.25349e-18, cumulative = -1.45906e-15
DILUPBiCG:  Solving for epsilon, Initial residual = 7.22141e-09, Final residual = 2.28595e-11, No Iterations 2
DILUPBiCG:  Solving for k, Initial residual = 1.18824e-08, Final residual = 2.8511e-12, No Iterations 3
DICPCG:  Solving for G, Initial residual = 1.75103e-08, Final residual = 1.24594e-09, No Iterations 12
Before T+T solve
BiCG:  Solving for T+T, Initial residual = 1.08861e-08, Final residual = 3.33073e-10, No Iterations 1
Tres = -6.51256e-06
TsRes = -5.35465e-12
ExecutionTime = 2.6 s



Wall heat fluxes [W]
movingWall -0.124795 8.13152e-16 -0.21375 -0.338545
left 0.2036 1.45681e-15 0.34206 0.54566
right -0.0333822 4.02274e-16 -0.173733 -0.207115
bottom -0.0454229 0 0.0454229 1.16537e-09
movingWall2 -0.000668053 -5.52218e-17 0.000668078 2.49496e-08
left2 0.0433908 1.1377e-16 0.163724 0.207115
right2 -0.056177 -1.6587e-16 -0.150944 -0.207121
bottom2 0.013448 0 -0.0134479 2.24525e-08
frontAndBack 0 0 0 0
sum -6.49444e-06 2.56492e-15 1.14193e-12 -6.49444e-06


Wall heat fluxes [W]
topAndBottom 0 0 0 0
left 0 0 0 0
right -5.35465e-12 0 0 -5.35465e-12
frontAndBack 0 0 0 0
sum -5.35465e-12 0 0 -5.35465e-12

Time = 991

DILUPBiCG:  Solving for Ux, Initial residual = 1.22411e-08, Final residual = 9.91431e-11, No Iterations 1
DILUPBiCG:  Solving for Uy, Initial residual = 9.26988e-09, Final residual = 5.05646e-11, No Iterations 1
DICPCG:  Solving for p_rgh, Initial residual = 3.16838e-08, Final residual = 2.4569e-10, No Iterations 6
time step continuity errors : sum local = 4.56888e-10, global = -2.3128e-17, cumulative = -1.48219e-15
DILUPBiCG:  Solving for epsilon, Initial residual = 7.13487e-09, Final residual = 2.25871e-11, No Iterations 2
DILUPBiCG:  Solving for k, Initial residual = 1.17407e-08, Final residual = 2.81802e-12, No Iterations 3
DICPCG:  Solving for G, Initial residual = 1.72979e-08, Final residual = 1.23082e-09, No Iterations 12
Before T+T solve
BiCG:  Solving for T+T, Initial residual = 1.07541e-08, Final residual = 3.29036e-10, No Iterations 1
Tres = -6.43339e-06
TsRes = -5.27507e-12
ExecutionTime = 2.61 s



Wall heat fluxes [W]
movingWall -0.124795 1.30104e-15 -0.21375 -0.338545
left 0.2036 -1.31807e-15 0.34206 0.54566
right -0.0333822 -8.13313e-17 -0.173733 -0.207115
bottom -0.0454229 0 0.0454229 1.15362e-09
movingWall2 -0.000668036 -8.7417e-18 0.000668061 2.46464e-08
left2 0.0433908 -4.56085e-17 0.163724 0.207115
right2 -0.056177 0 -0.150944 -0.207121
bottom2 0.013448 0 -0.0134479 2.21795e-08
frontAndBack 0 0 0 0
sum -6.41548e-06 -1.52707e-16 4.76117e-13 -6.41548e-06


Wall heat fluxes [W]
topAndBottom 0 0 0 0
left 0 0 0 0
right -5.27507e-12 0 0 -5.27507e-12
frontAndBack 0 0 0 0
sum -5.27507e-12 0 0 -5.27507e-12

Time = 992

DILUPBiCG:  Solving for Ux, Initial residual = 1.20933e-08, Final residual = 9.79999e-11, No Iterations 1
DILUPBiCG:  Solving for Uy, Initial residual = 9.15827e-09, Final residual = 4.99956e-11, No Iterations 1
DICPCG:  Solving for p_rgh, Initial residual = 3.13341e-08, Final residual = 2.59492e-10, No Iterations 11
time step continuity errors : sum local = 3.33926e-10, global = -3.33023e-17, cumulative = -1.51549e-15
DILUPBiCG:  Solving for epsilon, Initial residual = 7.04625e-09, Final residual = 2.23341e-11, No Iterations 2
DILUPBiCG:  Solving for k, Initial residual = 1.15872e-08, Final residual = 2.77928e-12, No Iterations 3
DICPCG:  Solving for G, Initial residual = 1.70884e-08, Final residual = 1.21586e-09, No Iterations 12
Before T+T solve
BiCG:  Solving for T+T, Initial residual = 1.06225e-08, Final residual = 3.25006e-10, No Iterations 1
Tres = -6.35521e-06
TsRes = -5.09317e-12
ExecutionTime = 2.61 s



Wall heat fluxes [W]
movingWall -0.124795 -2.43945e-15 -0.21375 -0.338545
left 0.2036 -6.24348e-16 0.34206 0.54566
right -0.0333822 6.43823e-16 -0.173733 -0.207115
bottom -0.0454229 0 0.0454229 1.13655e-09
movingWall2 -0.00066802 -1.89162e-17 0.000668044 2.4347e-08
left2 0.0433908 -5.92302e-16 0.163724 0.207115
right2 -0.0561769 -5.92394e-17 -0.150944 -0.207121
bottom2 0.013448 0 -0.013448 2.19102e-08
frontAndBack 0 0 0 0
sum -6.33752e-06 -3.09044e-15 1.40197e-12 -6.33752e-06


Wall heat fluxes [W]
topAndBottom 0 0 0 0
left 0 0 0 0
right -5.09317e-12 0 0 -5.09317e-12
frontAndBack 0 0 0 0
sum -5.09317e-12 0 0 -5.09317e-12

Time = 993

DILUPBiCG:  Solving for Ux, Initial residual = 1.1959e-08, Final residual = 9.66942e-11, No Iterations 1
DILUPBiCG:  Solving for Uy, Initial residual = 9.03698e-09, Final residual = 4.91135e-11, No Iterations 1
DICPCG:  Solving for p_rgh, Initial residual = 3.07933e-08, Final residual = 1.25422e-10, No Iterations 6
time step continuity errors : sum local = 1.9461e-10, global = 3.89437e-17, cumulative = -1.47655e-15
DILUPBiCG:  Solving for epsilon, Initial residual = 6.95976e-09, Final residual = 2.20446e-11, No Iterations 2
DILUPBiCG:  Solving for k, Initial residual = 1.14506e-08, Final residual = 2.74701e-12, No Iterations 3
DICPCG:  Solving for G, Initial residual = 1.68803e-08, Final residual = 1.20111e-09, No Iterations 12
Before T+T solve
BiCG:  Solving for T+T, Initial residual = 1.04936e-08, Final residual = 3.21063e-10, No Iterations 1
Tres = -6.27797e-06
TsRes = -4.97948e-12
ExecutionTime = 2.61 s



Wall heat fluxes [W]
movingWall -0.124795 2.11419e-15 -0.21375 -0.338545
left 0.2036 5.54976e-16 0.34206 0.54566
right -0.0333822 2.05017e-21 -0.173733 -0.207115
bottom -0.0454229 0 0.0454229 1.12119e-09
movingWall2 -0.000668003 2.90656e-18 0.000668027 2.4051e-08
left2 0.0433909 2.27818e-16 0.163724 0.207115
right2 -0.0561769 0 -0.150944 -0.207121
bottom2 0.013448 0 -0.013448 2.16438e-08
frontAndBack 0 0 0 0
sum -6.2605e-06 2.8999e-15 7.89813e-13 -6.2605e-06


Wall heat fluxes [W]
topAndBottom 0 0 0 0
left 0 0 0 0
right -4.97948e-12 0 0 -4.97948e-12
frontAndBack 0 0 0 0
sum -4.97948e-12 0 0 -4.97948e-12

Time = 994

DILUPBiCG:  Solving for Ux, Initial residual = 1.18007e-08, Final residual = 9.53217e-11, No Iterations 1
DILUPBiCG:  Solving for Uy, Initial residual = 8.92755e-09, Final residual = 4.84432e-11, No Iterations 1
DICPCG:  Solving for p_rgh, Initial residual = 3.04464e-08, Final residual = 1.3284e-10, No Iterations 6
time step continuity errors : sum local = 2.12692e-10, global = 4.79103e-17, cumulative = -1.42864e-15
DILUPBiCG:  Solving for epsilon, Initial residual = 6.8758e-09, Final residual = 2.17679e-11, No Iterations 2
DILUPBiCG:  Solving for k, Initial residual = 1.13128e-08, Final residual = 2.71372e-12, No Iterations 3
DICPCG:  Solving for G, Initial residual = 1.66743e-08, Final residual = 1.18651e-09, No Iterations 12
Before T+T solve
BiCG:  Solving for T+T, Initial residual = 1.03661e-08, Final residual = 3.17164e-10, No Iterations 1
Tres = -6.20167e-06
TsRes = -4.79758e-12
ExecutionTime = 2.61 s



Wall heat fluxes [W]
movingWall -0.124795 8.13152e-16 -0.21375 -0.338545
left 0.2036 7.63092e-16 0.34206 0.54566
right -0.0333822 8.05236e-17 -0.173733 -0.207115
bottom -0.0454229 0 0.0454229 1.1084e-09
movingWall2 -0.000667987 3.78449e-22 0.000668011 2.37586e-08
left2 0.0433909 -4.32785e-16 0.163724 0.207115
right2 -0.0561769 9.4783e-17 -0.150944 -0.207121
bottom2 0.013448 0 -0.013448 2.13806e-08
frontAndBack 0 0 0 0
sum -6.18441e-06 1.31877e-15 8.80452e-13 -6.18441e-06


Wall heat fluxes [W]
topAndBottom 0 0 0 0
left 0 0 0 0
right -4.79758e-12 0 0 -4.79758e-12
frontAndBack 0 0 0 0
sum -4.79758e-12 0 0 -4.79758e-12

Time = 995

DILUPBiCG:  Solving for Ux, Initial residual = 1.16549e-08, Final residual = 9.42788e-11, No Iterations 1
DILUPBiCG:  Solving for Uy, Initial residual = 8.82367e-09, Final residual = 4.80005e-11, No Iterations 1
DICPCG:  Solving for p_rgh, Initial residual = 3.01251e-08, Final residual = 1.68846e-10, No Iterations 6
time step continuity errors : sum local = 2.97991e-10, global = 7.07157e-17, cumulative = -1.35792e-15
DILUPBiCG:  Solving for epsilon, Initial residual = 6.79309e-09, Final residual = 2.15036e-11, No Iterations 2
DILUPBiCG:  Solving for k, Initial residual = 1.11777e-08, Final residual = 2.68199e-12, No Iterations 3
DICPCG:  Solving for G, Initial residual = 1.64718e-08, Final residual = 1.17204e-09, No Iterations 12
Before T+T solve
BiCG:  Solving for T+T, Initial residual = 1.02404e-08, Final residual = 3.13317e-10, No Iterations 1
Tres = -6.12628e-06
TsRes = -4.75211e-12
ExecutionTime = 2.62 s



Wall heat fluxes [W]
movingWall -0.124795 -8.13152e-16 -0.21375 -0.338545
left 0.2036 3.67672e-15 0.34206 0.54566
right -0.0333822 2.40957e-16 -0.173733 -0.207115
bottom -0.0454229 0 0.0454229 1.09621e-09
movingWall2 -0.000667971 3.84892e-17 0.000667994 2.34699e-08
left2 0.0433909 -2.28129e-17 0.163724 0.207115
right2 -0.0561768 -4.62067e-16 -0.150944 -0.207121
bottom2 0.013448 0 -0.013448 2.11209e-08
frontAndBack 0 0 0 0
sum -6.10923e-06 2.65813e-15 1.34194e-12 -6.10923e-06


Wall heat fluxes [W]
topAndBottom 0 0 0 0
left 0 0 0 0
right -4.75211e-12 0 0 -4.75211e-12
frontAndBack 0 0 0 0
sum -4.75211e-12 0 0 -4.75211e-12

Time = 996

DILUPBiCG:  Solving for Ux, Initial residual = 1.1515e-08, Final residual = 9.32629e-11, No Iterations 1
DILUPBiCG:  Solving for Uy, Initial residual = 8.72003e-09, Final residual = 4.75652e-11, No Iterations 1
DICPCG:  Solving for p_rgh, Initial residual = 2.98045e-08, Final residual = 2.31117e-10, No Iterations 6
time step continuity errors : sum local = 4.29789e-10, global = 4.71162e-17, cumulative = -1.31081e-15
DILUPBiCG:  Solving for epsilon, Initial residual = 6.71168e-09, Final residual = 2.12473e-11, No Iterations 2
DILUPBiCG:  Solving for k, Initial residual = 1.10444e-08, Final residual = 2.65088e-12, No Iterations 3
DICPCG:  Solving for G, Initial residual = 1.6272e-08, Final residual = 1.15783e-09, No Iterations 12
Before T+T solve
BiCG:  Solving for T+T, Initial residual = 1.01163e-08, Final residual = 3.0952e-10, No Iterations 1
Tres = -6.05181e-06
TsRes = -4.62705e-12
ExecutionTime = 2.62 s



Wall heat fluxes [W]
movingWall -0.124795 1.6263e-15 -0.21375 -0.338545
left 0.2036 2.08116e-15 0.34206 0.54566
right -0.0333822 -8.14582e-17 -0.173733 -0.207115
bottom -0.0454229 0 0.0454229 1.08522e-09
movingWall2 -0.000667955 5.8128e-17 0.000667978 2.31845e-08
left2 0.0433909 -6.83602e-17 0.163724 0.207115
right2 -0.0561768 8.29351e-17 -0.150944 -0.207121
bottom2 0.013448 0 -0.013448 2.0864e-08
frontAndBack 0 0 0 0
sum -6.03496e-06 3.69871e-15 7.91081e-13 -6.03496e-06


Wall heat fluxes [W]
topAndBottom 0 0 0 0
left 0 0 0 0
right -4.62705e-12 0 0 -4.62705e-12
frontAndBack 0 0 0 0
sum -4.62705e-12 0 0 -4.62705e-12

Time = 997

DILUPBiCG:  Solving for Ux, Initial residual = 1.1376e-08, Final residual = 9.21874e-11, No Iterations 1
DILUPBiCG:  Solving for Uy, Initial residual = 8.61507e-09, Final residual = 4.70302e-11, No Iterations 1
DICPCG:  Solving for p_rgh, Initial residual = 2.94756e-08, Final residual = 2.44101e-10, No Iterations 11
time step continuity errors : sum local = 3.1412e-10, global = -3.81992e-17, cumulative = -1.349e-15
DILUPBiCG:  Solving for epsilon, Initial residual = 6.62831e-09, Final residual = 2.10093e-11, No Iterations 2
DILUPBiCG:  Solving for k, Initial residual = 1.08999e-08, Final residual = 2.61443e-12, No Iterations 3
DICPCG:  Solving for G, Initial residual = 1.60749e-08, Final residual = 1.14375e-09, No Iterations 12
Before T+T solve
BiCG:  Solving for T+T, Initial residual = 9.99247e-09, Final residual = 3.05728e-10, No Iterations 1
Tres = -5.97826e-06
TsRes = -4.5361e-12
ExecutionTime = 2.62 s



Wall heat fluxes [W]
movingWall -0.124795 2.27682e-15 -0.21375 -0.338545
left 0.2036 -3.67672e-15 0.34206 0.54566
right -0.0333822 2.41478e-16 -0.173733 -0.207115
bottom -0.0454229 0 0.0454229 1.06911e-09
movingWall2 -0.00066794 -4.2119e-17 0.000667962 2.29029e-08
left2 0.0433909 8.20268e-16 0.163724 0.207115
right2 -0.0561768 -2.2511e-16 -0.150944 -0.207121
bottom2 0.013448 0 -0.013448 2.06106e-08
frontAndBack 0 0 0 0
sum -5.96163e-06 -6.05374e-16 1.26531e-12 -5.96162e-06


Wall heat fluxes [W]
topAndBottom 0 0 0 0
left 0 0 0 0
right -4.5361e-12 0 0 -4.5361e-12
frontAndBack 0 0 0 0
sum -4.5361e-12 0 0 -4.5361e-12

Time = 998

DILUPBiCG:  Solving for Ux, Initial residual = 1.12497e-08, Final residual = 9.09591e-11, No Iterations 1
DILUPBiCG:  Solving for Uy, Initial residual = 8.50098e-09, Final residual = 4.62004e-11, No Iterations 1
DICPCG:  Solving for p_rgh, Initial residual = 2.89669e-08, Final residual = 1.17983e-10, No Iterations 6
time step continuity errors : sum local = 1.83067e-10, global = -9.22306e-17, cumulative = -1.44124e-15
DILUPBiCG:  Solving for epsilon, Initial residual = 6.54696e-09, Final residual = 2.0737e-11, No Iterations 2
DILUPBiCG:  Solving for k, Initial residual = 1.07715e-08, Final residual = 2.58408e-12, No Iterations 3
DICPCG:  Solving for G, Initial residual = 1.58791e-08, Final residual = 1.12987e-09, No Iterations 12
Before T+T solve
BiCG:  Solving for T+T, Initial residual = 9.87118e-09, Final residual = 3.0202e-10, No Iterations 1
Tres = -5.9056e-06
TsRes = -4.45652e-12
ExecutionTime = 2.62 s



Wall heat fluxes [W]
movingWall -0.124795 8.13152e-16 -0.21375 -0.338545
left 0.2036 -3.12174e-15 0.34206 0.54566
right -0.0333822 -4.02224e-16 -0.173733 -0.207115
bottom -0.0454229 0 0.0454229 1.05466e-09
movingWall2 -0.000667924 1.3084e-17 0.000667947 2.26245e-08
left2 0.0433909 9.09138e-17 0.163724 0.207115
right2 -0.0561767 -2.36957e-17 -0.150944 -0.207121
bottom2 0.013448 0 -0.013448 2.03601e-08
frontAndBack 0 0 0 0
sum -5.88917e-06 -2.63051e-15 8.36317e-13 -5.88917e-06


Wall heat fluxes [W]
topAndBottom 0 0 0 0
left 0 0 0 0
right -4.45652e-12 0 0 -4.45652e-12
frontAndBack 0 0 0 0
sum -4.45652e-12 0 0 -4.45652e-12

Time = 999

DILUPBiCG:  Solving for Ux, Initial residual = 1.11007e-08, Final residual = 8.96681e-11, No Iterations 1
DILUPBiCG:  Solving for Uy, Initial residual = 8.39803e-09, Final residual = 4.55698e-11, No Iterations 1
DICPCG:  Solving for p_rgh, Initial residual = 2.86406e-08, Final residual = 1.24961e-10, No Iterations 6
time step continuity errors : sum local = 2.00077e-10, global = -2.65029e-17, cumulative = -1.46774e-15
DILUPBiCG:  Solving for epsilon, Initial residual = 6.46797e-09, Final residual = 2.04768e-11, No Iterations 2
DILUPBiCG:  Solving for k, Initial residual = 1.06418e-08, Final residual = 2.55276e-12, No Iterations 3
DICPCG:  Solving for G, Initial residual = 1.56852e-08, Final residual = 1.11614e-09, No Iterations 12
Before T+T solve
BiCG:  Solving for T+T, Initial residual = 9.75126e-09, Final residual = 2.98351e-10, No Iterations 1
Tres = -5.83383e-06
TsRes = -4.34284e-12
ExecutionTime = 2.63 s



Wall heat fluxes [W]
movingWall -0.124795 -1.6263e-15 -0.21375 -0.338545
left 0.2036 -4.16232e-16 0.34206 0.54566
right -0.0333822 2.41534e-16 -0.173733 -0.207115
bottom -0.0454229 0 0.0454229 1.04269e-09
movingWall2 -0.000667909 -4.9394e-17 0.000667931 2.23494e-08
left2 0.0433909 2.96144e-16 0.163724 0.207115
right2 -0.0561767 -7.10872e-17 -0.150944 -0.207121
bottom2 0.0134481 0 -0.013448 2.01125e-08
frontAndBack 0 0 0 0
sum -5.81759e-06 -1.62534e-15 9.40173e-13 -5.81759e-06


Wall heat fluxes [W]
topAndBottom 0 0 0 0
left 0 0 0 0
right -4.34284e-12 0 0 -4.34284e-12
frontAndBack 0 0 0 0
sum -4.34284e-12 0 0 -4.34284e-12

Time = 1000

DILUPBiCG:  Solving for Ux, Initial residual = 1.09636e-08, Final residual = 8.8687e-11, No Iterations 1
DILUPBiCG:  Solving for Uy, Initial residual = 8.30032e-09, Final residual = 4.51535e-11, No Iterations 1
DICPCG:  Solving for p_rgh, Initial residual = 2.83383e-08, Final residual = 1.58831e-10, No Iterations 6
time step continuity errors : sum local = 2.80316e-10, global = -4.88037e-18, cumulative = -1.47262e-15
DILUPBiCG:  Solving for epsilon, Initial residual = 6.39017e-09, Final residual = 2.02282e-11, No Iterations 2
DILUPBiCG:  Solving for k, Initial residual = 1.05147e-08, Final residual = 2.52291e-12, No Iterations 3
DICPCG:  Solving for G, Initial residual = 1.54947e-08, Final residual = 1.10251e-09, No Iterations 12
Before T+T solve
BiCG:  Solving for T+T, Initial residual = 9.63299e-09, Final residual = 2.94734e-10, No Iterations 1
Tres = -5.76291e-06
TsRes = -4.18368e-12
ExecutionTime = 2.63 s



Wall heat fluxes [W]
movingWall -0.124795 -8.13152e-16 -0.21375 -0.338545
left 0.2036 -1.38744e-15 0.34206 0.54566
right -0.0333822 1.62022e-16 -0.173733 -0.207115
bottom -0.0454229 0 0.0454229 1.03116e-09
movingWall2 -0.000667894 -1.01897e-17 0.000667916 2.20778e-08
left2 0.0433909 3.18973e-16 0.163724 0.207115
right2 -0.0561766 1.42174e-16 -0.150944 -0.207121
bottom2 0.0134481 0 -0.013448 1.98681e-08
frontAndBack 0 0 0 0
sum -5.74687e-06 -1.58761e-15 9.32966e-13 -5.74687e-06


Wall heat fluxes [W]
topAndBottom 0 0 0 0
left 0 0 0 0
right -4.18368e-12 0 0 -4.18368e-12
frontAndBack 0 0 0 0
sum -4.18368e-12 0 0 -4.18368e-12

End

