/*---------------------------------------------------------------------------*\
| =========                 |                                                 |
| \\      /  F ield         | OpenFOAM Extend Project: Open source CFD        |
|  \\    /   O peration     | Version:  1.6-ext                               |
|   \\  /    A nd           | Web:      www.extend-project.de                 |
|    \\/     M anipulation  |                                                 |
\*---------------------------------------------------------------------------*/
Build  : 1.6-ext-daa8fb2a98e6
Exec   : chipAirCoolingSimpleFoam
Date   : Nov 29 2011
Time   : 22:11:52
Host   : ubuntu
PID    : 513
Case   : /home/user/ChipAirCoolingClient/run/tutorial1_resistance
nProcs : 1
SigFpe : Enabling floating point exception trapping (FOAM_SIGFPE).

// * * * * * * * * * * * * * * * * * * * * * * * * * * * * * * * * * * * * * //
Create time

Create mesh for time = 0


Reading g
Reading transportProperties

Calculating field g.h

Reading field p_rgh

Reading field U

Reading field T

Reading/calculating face flux field phi

Selecting incompressible transport model Newtonian
Selecting RAS turbulence model kEpsilon
kEpsilonCoeffs
{
    Cmu             0.09;
    C1              1.44;
    C2              1.92;
    alphaEps        0.76923;
    sigmaEps        1.3;
}

Reading field kappaEff

Creating radiation model

Selecting radiationModel P1
Selecting absorptionEmissionModel constantAbsorptionEmission
Selecting scatterModel constantScatter
Reading field Tsolid

Reading solid thermal properties
Selecting thermal model multiMaterialZones
Selecting thermal model constant
Selecting thermal model constant
Selecting thermal gap model constant
Reading solid diffusivity k


Starting time loop

--> FOAM Warning : 
    From function dlLibraryTable::open(const dictionary& dict, const word& libsEntry, const TablePtr tablePtr)
    in file lnInclude/dlLibraryTableTemplates.C at line 68
    library "libairbusMaterialModels.so" did not introduce any new entries

Time = 1

DILUPBiCG:  Solving for Ux, Initial residual = 1, Final residual = 9.72759e-05, No Iterations 2
DILUPBiCG:  Solving for Uy, Initial residual = 1, Final residual = 0.000174731, No Iterations 2
DICPCG:  Solving for p_rgh, Initial residual = 1, Final residual = 0.00985949, No Iterations 5
time step continuity errors : sum local = 0.00481111, global = 2.0845e-18, cumulative = 2.0845e-18
DILUPBiCG:  Solving for epsilon, Initial residual = 0.0778063, Final residual = 0.000142604, No Iterations 2
DILUPBiCG:  Solving for k, Initial residual = 1, Final residual = 0.00249972, No Iterations 2
DICPCG:  Solving for G, Initial residual = 1, Final residual = 0.0255384, No Iterations 11
Before T+T solve
BiCG:  Solving for T+T, Initial residual = 0.308114, Final residual = 0.0281136, No Iterations 3
Tres = -0.45111
TsRes = -17.6098
ExecutionTime = 0.02 s



Wall heat fluxes [W]
movingWall 0.0020476 0 8.04921e-07 0.0020484
left 6.19971e-07 0 -1.20093e-06 -5.80961e-07
right -0.454539 0 8.04921e-07 -0.454538
bottom 0.00434042 0 -1.20093e-06 0.00433922
frontAndBack 0 0 0 0
sum -0.44815 0 -7.92022e-07 -0.448151


Wall heat fluxes [W]
topAndBottom 0 0 0 0
left -1.07374 0 0 -1.07374
right -18.4182 0 0 -18.4182
frontAndBack 0 0 0 0
sum -19.4919 0 0 -19.4919

Time = 2

DILUPBiCG:  Solving for Ux, Initial residual = 0.873927, Final residual = 8.90319e-05, No Iterations 2
DILUPBiCG:  Solving for Uy, Initial residual = 0.823312, Final residual = 0.0072136, No Iterations 1
DICPCG:  Solving for p_rgh, Initial residual = 0.890943, Final residual = 0.00653073, No Iterations 6
time step continuity errors : sum local = 0.0198129, global = 1.42937e-17, cumulative = 1.63782e-17
DILUPBiCG:  Solving for epsilon, Initial residual = 0.0229164, Final residual = 2.9214e-05, No Iterations 2
DILUPBiCG:  Solving for k, Initial residual = 0.653683, Final residual = 0.000819207, No Iterations 2
DICPCG:  Solving for G, Initial residual = 0.993803, Final residual = 0.0324222, No Iterations 13
Before T+T solve
BiCG:  Solving for T+T, Initial residual = 0.0317563, Final residual = 0.00219768, No Iterations 5
Tres = -0.838461
TsRes = -5.84163
ExecutionTime = 0.03 s



Wall heat fluxes [W]
movingWall -0.207015 4.61735e-18 0.291691 0.0846759
left 0.00779548 -2.84481e-21 0.292967 0.300762
right -0.371118 7.07106e-16 -0.87154 -1.24266
bottom -0.187881 0 0.286885 0.0990038
frontAndBack 0 0 0 0
sum -0.758218 7.1172e-16 2.82531e-06 -0.758216


Wall heat fluxes [W]
topAndBottom 0 0 0 0
left 33.0588 0 0 33.0588
right -7.16977 0 0 -7.16977
frontAndBack 0 0 0 0
sum 25.889 0 0 25.889

Time = 3

DILUPBiCG:  Solving for Ux, Initial residual = 0.419245, Final residual = 3.24274e-05, No Iterations 2
DILUPBiCG:  Solving for Uy, Initial residual = 0.512959, Final residual = 0.00424311, No Iterations 1
DICPCG:  Solving for p_rgh, Initial residual = 0.478091, Final residual = 0.00272093, No Iterations 6
time step continuity errors : sum local = 0.00670662, global = 1.11835e-16, cumulative = 1.28213e-16
DILUPBiCG:  Solving for epsilon, Initial residual = 0.0771859, Final residual = 4.57555e-05, No Iterations 2
DILUPBiCG:  Solving for k, Initial residual = 0.219572, Final residual = 0.000277867, No Iterations 2
DICPCG:  Solving for G, Initial residual = 0.184131, Final residual = 0.0134086, No Iterations 11
Before T+T solve
BiCG:  Solving for T+T, Initial residual = 0.00866314, Final residual = 0.000402687, No Iterations 5
Tres = -0.8052
TsRes = -3.41381
ExecutionTime = 0.03 s



Wall heat fluxes [W]
movingWall -0.173472 -5.92458e-16 0.169758 -0.00371402
left 0.0105513 -6.07682e-17 0.358145 0.368697
right -0.426057 5.89174e-15 -0.657987 -1.08404
bottom -0.138261 0 0.130074 -0.00818732
frontAndBack 0 0 0 0
sum -0.727239 5.23851e-15 -9.19062e-06 -0.727248


Wall heat fluxes [W]
topAndBottom 0 0 0 0
left 32.0054 0 0 32.0054
right -4.79269 0 0 -4.79269
frontAndBack 0 0 0 0
sum 27.2127 0 0 27.2127

Time = 4

DILUPBiCG:  Solving for Ux, Initial residual = 0.172005, Final residual = 1.74219e-05, No Iterations 2
DILUPBiCG:  Solving for Uy, Initial residual = 0.34804, Final residual = 0.00286943, No Iterations 1
DICPCG:  Solving for p_rgh, Initial residual = 0.179827, Final residual = 0.00155936, No Iterations 6
time step continuity errors : sum local = 0.00493506, global = 2.69198e-16, cumulative = 3.97411e-16
DILUPBiCG:  Solving for epsilon, Initial residual = 0.117263, Final residual = 0.000103562, No Iterations 2
DILUPBiCG:  Solving for k, Initial residual = 0.129448, Final residual = 0.000151958, No Iterations 2
DICPCG:  Solving for G, Initial residual = 0.121369, Final residual = 0.00354136, No Iterations 13
Before T+T solve
BiCG:  Solving for T+T, Initial residual = 0.00540557, Final residual = 0.000258614, No Iterations 5
Tres = -0.906826
TsRes = -2.13428
ExecutionTime = 0.03 s



Wall heat fluxes [W]
movingWall -0.218236 1.19763e-15 0.245915 0.0276788
left 0.0143856 1.35492e-19 0.426188 0.440574
right -0.46527 1.09896e-14 -0.887139 -1.35241
bottom -0.184257 0 0.215037 0.0307803
frontAndBack 0 0 0 0
sum -0.853377 1.21873e-14 1.05534e-06 -0.853376


Wall heat fluxes [W]
topAndBottom 0 0 0 0
left 22.7549 0 0 22.7549
right -3.71355 0 0 -3.71355
frontAndBack 0 0 0 0
sum 19.0413 0 0 19.0413

Time = 5

DILUPBiCG:  Solving for Ux, Initial residual = 0.135196, Final residual = 0.00132277, No Iterations 1
DILUPBiCG:  Solving for Uy, Initial residual = 0.208765, Final residual = 0.00167279, No Iterations 1
DICPCG:  Solving for p_rgh, Initial residual = 0.126416, Final residual = 0.00122091, No Iterations 11
time step continuity errors : sum local = 0.00300706, global = 1.1473e-16, cumulative = 5.12141e-16
DILUPBiCG:  Solving for epsilon, Initial residual = 0.137054, Final residual = 0.000133616, No Iterations 2
DILUPBiCG:  Solving for k, Initial residual = 0.0968992, Final residual = 0.000137268, No Iterations 2
DICPCG:  Solving for G, Initial residual = 0.10193, Final residual = 0.0028813, No Iterations 13
Before T+T solve
BiCG:  Solving for T+T, Initial residual = 0.00398605, Final residual = 0.000243828, No Iterations 4
Tres = -0.983872
TsRes = -1.40035
ExecutionTime = 0.04 s



Wall heat fluxes [W]
movingWall -0.254294 -3.05413e-15 0.278973 0.0246786
left 0.0184393 1.21401e-16 0.515345 0.533784
right -0.492098 9.28445e-15 -1.03596 -1.52805
bottom -0.218618 0 0.241638 0.0230199
frontAndBack 0 0 0 0
sum -0.946571 6.35172e-15 -2.31438e-07 -0.946571


Wall heat fluxes [W]
topAndBottom 0 0 0 0
left 16.3302 0 0 16.3302
right -3.0957 0 0 -3.0957
frontAndBack 0 0 0 0
sum 13.2345 0 0 13.2345

Time = 6

DILUPBiCG:  Solving for Ux, Initial residual = 0.0969376, Final residual = 0.000829544, No Iterations 1
DILUPBiCG:  Solving for Uy, Initial residual = 0.125208, Final residual = 0.00097443, No Iterations 1
DICPCG:  Solving for p_rgh, Initial residual = 0.0895099, Final residual = 0.000513532, No Iterations 11
time step continuity errors : sum local = 0.00124199, global = 2.2843e-16, cumulative = 7.40571e-16
DILUPBiCG:  Solving for epsilon, Initial residual = 0.129123, Final residual = 0.000134589, No Iterations 2
DILUPBiCG:  Solving for k, Initial residual = 0.0807321, Final residual = 2.20464e-05, No Iterations 3
DICPCG:  Solving for G, Initial residual = 0.0700868, Final residual = 0.00199691, No Iterations 13
Before T+T solve
BiCG:  Solving for T+T, Initial residual = 0.00315103, Final residual = 0.000281436, No Iterations 3
Tres = -1.03614
TsRes = -0.971029
ExecutionTime = 0.04 s



Wall heat fluxes [W]
movingWall -0.279955 3.69339e-15 0.299431 0.0194758
left 0.0228765 -2.94831e-16 0.585637 0.608513
right -0.507955 7.05361e-15 -1.15064 -1.6586
bottom -0.245262 0 0.265575 0.0203131
frontAndBack 0 0 0 0
sum -1.0103 1.04522e-14 -3.43577e-07 -1.0103


Wall heat fluxes [W]
topAndBottom 0 0 0 0
left 11.6462 0 0 11.6462
right -2.74473 0 0 -2.74473
frontAndBack 0 0 0 0
sum 8.90143 0 0 8.90143

Time = 7

DILUPBiCG:  Solving for Ux, Initial residual = 0.0718652, Final residual = 0.000588556, No Iterations 1
DILUPBiCG:  Solving for Uy, Initial residual = 0.0844438, Final residual = 0.000705154, No Iterations 1
DICPCG:  Solving for p_rgh, Initial residual = 0.0645965, Final residual = 0.000526242, No Iterations 10
time step continuity errors : sum local = 0.00108415, global = 8.66885e-18, cumulative = 7.4924e-16
DILUPBiCG:  Solving for epsilon, Initial residual = 0.106682, Final residual = 0.000119159, No Iterations 2
DILUPBiCG:  Solving for k, Initial residual = 0.0712732, Final residual = 0.000112595, No Iterations 2
DICPCG:  Solving for G, Initial residual = 0.0485187, Final residual = 0.00137075, No Iterations 13
Before T+T solve
BiCG:  Solving for T+T, Initial residual = 0.00266919, Final residual = 0.000135065, No Iterations 3
Tres = -1.06778
TsRes = -0.645643
ExecutionTime = 0.04 s



Wall heat fluxes [W]
movingWall -0.298636 1.87936e-15 0.313695 0.0150591
left 0.0273771 -2.53641e-16 0.639043 0.666421
right -0.516223 -1.58118e-15 -1.23089 -1.74711
bottom -0.261627 0 0.278147 0.01652
frontAndBack 0 0 0 0
sum -1.04911 4.45317e-17 -3.62729e-07 -1.04911


Wall heat fluxes [W]
topAndBottom 0 0 0 0
left 8.72121 0 0 8.72121
right -2.47117 0 0 -2.47117
frontAndBack 0 0 0 0
sum 6.25003 0 0 6.25003

Time = 8

DILUPBiCG:  Solving for Ux, Initial residual = 0.0575795, Final residual = 0.000456797, No Iterations 1
DILUPBiCG:  Solving for Uy, Initial residual = 0.0673701, Final residual = 0.000546116, No Iterations 1
DICPCG:  Solving for p_rgh, Initial residual = 0.0622904, Final residual = 0.000547991, No Iterations 10
time step continuity errors : sum local = 0.00111965, global = -2.37566e-17, cumulative = 7.25483e-16
DILUPBiCG:  Solving for epsilon, Initial residual = 0.0834756, Final residual = 0.000234973, No Iterations 2
DILUPBiCG:  Solving for k, Initial residual = 0.0665052, Final residual = 0.000121235, No Iterations 2
DICPCG:  Solving for G, Initial residual = 0.0336993, Final residual = 0.000925574, No Iterations 13
Before T+T solve
BiCG:  Solving for T+T, Initial residual = 0.00229465, Final residual = 0.000146836, No Iterations 3
Tres = -1.08408
TsRes = -0.450148
ExecutionTime = 0.05 s



Wall heat fluxes [W]
movingWall -0.311088 1.8666e-15 0.322968 0.0118799
left 0.0308643 -1.27905e-16 0.678484 0.709348
right -0.520171 -3.20055e-15 -1.28592 -1.80609
bottom -0.270514 0 0.284465 0.0139515
frontAndBack 0 0 0 0
sum -1.07091 -1.46185e-15 -3.08018e-07 -1.07091


Wall heat fluxes [W]
topAndBottom 0 0 0 0
left 6.44827 0 0 6.44827
right -2.30798 0 0 -2.30798
frontAndBack 0 0 0 0
sum 4.14029 0 0 4.14029

Time = 9

DILUPBiCG:  Solving for Ux, Initial residual = 0.0494652, Final residual = 0.000373078, No Iterations 1
DILUPBiCG:  Solving for Uy, Initial residual = 0.0563405, Final residual = 0.000447506, No Iterations 1
DICPCG:  Solving for p_rgh, Initial residual = 0.0653831, Final residual = 0.000601193, No Iterations 10
time step continuity errors : sum local = 0.00119888, global = 1.9452e-16, cumulative = 9.20003e-16
DILUPBiCG:  Solving for epsilon, Initial residual = 0.0678534, Final residual = 0.000122122, No Iterations 2
DILUPBiCG:  Solving for k, Initial residual = 0.0628995, Final residual = 0.00011061, No Iterations 2
DICPCG:  Solving for G, Initial residual = 0.0246582, Final residual = 0.00066718, No Iterations 13
Before T+T solve
BiCG:  Solving for T+T, Initial residual = 0.0020705, Final residual = 0.000115653, No Iterations 3
Tres = -1.09172
TsRes = -0.303309
ExecutionTime = 0.05 s



Wall heat fluxes [W]
movingWall -0.319441 4.42672e-15 0.329345 0.00990454
left 0.0333303 -2.90495e-16 0.708609 0.741939
right -0.520758 4.79163e-15 -1.32461 -1.84537
bottom -0.275036 0 0.286658 0.0116224
frontAndBack 0 0 0 0
sum -1.0819 8.92786e-15 -2.56062e-07 -1.0819


Wall heat fluxes [W]
topAndBottom 0 0 0 0
left 5.10312 0 0 5.10312
right -2.18202 0 0 -2.18202
frontAndBack 0 0 0 0
sum 2.9211 0 0 2.9211

Time = 10

DILUPBiCG:  Solving for Ux, Initial residual = 0.0446003, Final residual = 0.000323459, No Iterations 1
DILUPBiCG:  Solving for Uy, Initial residual = 0.0521096, Final residual = 0.000389214, No Iterations 1
DICPCG:  Solving for p_rgh, Initial residual = 0.0674262, Final residual = 0.000585902, No Iterations 10
time step continuity errors : sum local = 0.00113269, global = 1.58819e-17, cumulative = 9.35885e-16
DILUPBiCG:  Solving for epsilon, Initial residual = 0.0562083, Final residual = 5.72007e-05, No Iterations 2
DILUPBiCG:  Solving for k, Initial residual = 0.0599695, Final residual = 9.67425e-05, No Iterations 2
DICPCG:  Solving for G, Initial residual = 0.0180722, Final residual = 0.000482976, No Iterations 13
Before T+T solve
BiCG:  Solving for T+T, Initial residual = 0.00190007, Final residual = 0.000102928, No Iterations 3
Tres = -1.09282
TsRes = -0.213728
ExecutionTime = 0.05 s



Wall heat fluxes [W]
movingWall -0.324141 -2.49405e-15 0.33226 0.00811825
left 0.0352179 -1.7343e-17 0.731311 0.766529
right -0.519873 3.60653e-15 -1.34969 -1.86956
bottom -0.2768 0 0.286114 0.00931354
frontAndBack 0 0 0 0
sum -1.0856 1.09514e-15 -2.28879e-07 -1.0856


Wall heat fluxes [W]
topAndBottom 0 0 0 0
left 4.07814 0 0 4.07814
right -2.10458 0 0 -2.10458
frontAndBack 0 0 0 0
sum 1.97356 0 0 1.97356

Time = 11

DILUPBiCG:  Solving for Ux, Initial residual = 0.0411716, Final residual = 0.000287318, No Iterations 1
DILUPBiCG:  Solving for Uy, Initial residual = 0.0506943, Final residual = 0.000349252, No Iterations 1
DICPCG:  Solving for p_rgh, Initial residual = 0.0691397, Final residual = 0.000592587, No Iterations 10
time step continuity errors : sum local = 0.00111533, global = -9.68753e-17, cumulative = 8.39009e-16
DILUPBiCG:  Solving for epsilon, Initial residual = 0.0468419, Final residual = 8.35177e-05, No Iterations 2
DILUPBiCG:  Solving for k, Initial residual = 0.0573556, Final residual = 8.2585e-05, No Iterations 2
DICPCG:  Solving for G, Initial residual = 0.0136884, Final residual = 0.000362862, No Iterations 13
Before T+T solve
BiCG:  Solving for T+T, Initial residual = 0.00179777, Final residual = 9.18957e-05, No Iterations 3
Tres = -1.09078
TsRes = -0.146403
ExecutionTime = 0.06 s



Wall heat fluxes [W]
movingWall -0.326529 -6.3138e-16 0.333592 0.0070629
left 0.0367307 -3.4686e-17 0.748846 0.785576
right -0.518 -4.83337e-15 -1.36748 -1.88548
bottom -0.277488 0 0.285045 0.00755655
frontAndBack 0 0 0 0
sum -1.08529 -5.49943e-15 -1.86364e-07 -1.08529


Wall heat fluxes [W]
topAndBottom 0 0 0 0
left 3.44783 0 0 3.44783
right -2.04509 0 0 -2.04509
frontAndBack 0 0 0 0
sum 1.40274 0 0 1.40274

Time = 12

DILUPBiCG:  Solving for Ux, Initial residual = 0.0392095, Final residual = 0.000280129, No Iterations 1
DILUPBiCG:  Solving for Uy, Initial residual = 0.0499966, Final residual = 0.000326234, No Iterations 1
DICPCG:  Solving for p_rgh, Initial residual = 0.0709639, Final residual = 0.000581183, No Iterations 10
time step continuity errors : sum local = 0.0010813, global = -1.81583e-16, cumulative = 6.57427e-16
DILUPBiCG:  Solving for epsilon, Initial residual = 0.0395737, Final residual = 9.72767e-05, No Iterations 2
DILUPBiCG:  Solving for k, Initial residual = 0.0550665, Final residual = 7.18241e-05, No Iterations 2
DICPCG:  Solving for G, Initial residual = 0.0104557, Final residual = 0.000277216, No Iterations 13
Before T+T solve
BiCG:  Solving for T+T, Initial residual = 0.00173582, Final residual = 7.61377e-05, No Iterations 3
Tres = -1.08624
TsRes = -0.104282
ExecutionTime = 0.06 s



Wall heat fluxes [W]
movingWall -0.326987 -2.50812e-15 0.333071 0.00608352
left 0.038065 1.90773e-16 0.762418 0.800483
right -0.515883 -5.24547e-15 -1.37902 -1.8949
bottom -0.277278 0 0.283532 0.0062541
frontAndBack 0 0 0 0
sum -1.08208 -7.56282e-15 -1.50501e-07 -1.08208


Wall heat fluxes [W]
topAndBottom 0 0 0 0
left 2.97668 0 0 2.97668
right -2.00728 0 0 -2.00728
frontAndBack 0 0 0 0
sum 0.969393 0 0 0.969393

Time = 13

DILUPBiCG:  Solving for Ux, Initial residual = 0.036998, Final residual = 0.00029586, No Iterations 1
DILUPBiCG:  Solving for Uy, Initial residual = 0.0487529, Final residual = 0.000305465, No Iterations 1
DICPCG:  Solving for p_rgh, Initial residual = 0.0710552, Final residual = 0.000591012, No Iterations 10
time step continuity errors : sum local = 0.00107727, global = 3.80966e-16, cumulative = 1.03839e-15
DILUPBiCG:  Solving for epsilon, Initial residual = 0.0339845, Final residual = 7.39084e-05, No Iterations 2
DILUPBiCG:  Solving for k, Initial residual = 0.0529557, Final residual = 6.33235e-05, No Iterations 2
DICPCG:  Solving for G, Initial residual = 0.00827969, Final residual = 0.000215971, No Iterations 13
Before T+T solve
BiCG:  Solving for T+T, Initial residual = 0.00169162, Final residual = 6.83789e-05, No Iterations 3
Tres = -1.08067
TsRes = -0.0729958
ExecutionTime = 0.06 s



Wall heat fluxes [W]
movingWall -0.326393 -1.2509e-15 0.331787 0.0053941
left 0.0392105 2.94831e-16 0.773268 0.812479
right -0.513687 2.01866e-14 -1.38696 -1.90065
bottom -0.276588 0 0.281904 0.00531615
frontAndBack 0 0 0 0
sum -1.07746 1.92306e-14 -1.1369e-07 -1.07746


Wall heat fluxes [W]
topAndBottom 0 0 0 0
left 2.67645 0 0 2.67645
right -1.97843 0 0 -1.97843
frontAndBack 0 0 0 0
sum 0.69802 0 0 0.69802

Time = 14

DILUPBiCG:  Solving for Ux, Initial residual = 0.0349038, Final residual = 5.68671e-05, No Iterations 2
DILUPBiCG:  Solving for Uy, Initial residual = 0.0475088, Final residual = 0.000294454, No Iterations 1
DICPCG:  Solving for p_rgh, Initial residual = 0.0695109, Final residual = 0.00060975, No Iterations 10
time step continuity errors : sum local = 0.00108522, global = 2.26317e-17, cumulative = 1.06102e-15
DILUPBiCG:  Solving for epsilon, Initial residual = 0.0297313, Final residual = 4.59917e-05, No Iterations 2
DILUPBiCG:  Solving for k, Initial residual = 0.0516307, Final residual = 6.04398e-05, No Iterations 2
DICPCG:  Solving for G, Initial residual = 0.00666204, Final residual = 0.000174811, No Iterations 13
Before T+T solve
BiCG:  Solving for T+T, Initial residual = 0.00166704, Final residual = 0.000137208, No Iterations 1
Tres = -1.07354
TsRes = -0.0741043
ExecutionTime = 0.07 s



Wall heat fluxes [W]
movingWall -0.324994 -1.89135e-15 0.32982 0.00482612
left 0.0401286 -4.16232e-16 0.782058 0.822187
right -0.511664 4.85282e-15 -1.39197 -1.90363
bottom -0.275579 0 0.280089 0.0045095
frontAndBack 0 0 0 0
sum -1.07211 2.54524e-15 -7.99473e-08 -1.07211


Wall heat fluxes [W]
topAndBottom 0 0 0 0
left 1.94733 0 0 1.94733
right -1.97662 0 0 -1.97662
frontAndBack 0 0 0 0
sum -0.0292846 0 0 -0.0292846

Time = 15

DILUPBiCG:  Solving for Ux, Initial residual = 0.0330045, Final residual = 1.2713e-08, No Iterations 3
DILUPBiCG:  Solving for Uy, Initial residual = 0.046203, Final residual = 0.00029446, No Iterations 1
DICPCG:  Solving for p_rgh, Initial residual = 0.066747, Final residual = 0.000622646, No Iterations 10
time step continuity errors : sum local = 0.00108335, global = -3.38284e-16, cumulative = 7.22741e-16
DILUPBiCG:  Solving for epsilon, Initial residual = 0.0265034, Final residual = 3.10204e-05, No Iterations 2
DILUPBiCG:  Solving for k, Initial residual = 0.050755, Final residual = 5.9424e-05, No Iterations 2
DICPCG:  Solving for G, Initial residual = 0.00550363, Final residual = 0.000141271, No Iterations 13
Before T+T solve
BiCG:  Solving for T+T, Initial residual = 0.00165661, Final residual = 0.000136548, No Iterations 1
Tres = -1.06652
TsRes = -0.0744985
ExecutionTime = 0.07 s



Wall heat fluxes [W]
movingWall -0.322996 -1.6264e-17 0.327491 0.00449449
left 0.041101 -4.50918e-16 0.789352 0.830453
right -0.508793 -1.53601e-14 -1.39523 -1.90402
bottom -0.274638 0 0.278388 0.00375068
frontAndBack 0 0 0 0
sum -1.06533 -1.58272e-14 -5.1788e-08 -1.06533


Wall heat fluxes [W]
topAndBottom 0 0 0 0
left 1.94792 0 0 1.94792
right -1.97478 0 0 -1.97478
frontAndBack 0 0 0 0
sum -0.0268582 0 0 -0.0268582

Time = 16

DILUPBiCG:  Solving for Ux, Initial residual = 0.0320934, Final residual = 2.06359e-05, No Iterations 2
DILUPBiCG:  Solving for Uy, Initial residual = 0.0453783, Final residual = 0.000293833, No Iterations 1
DICPCG:  Solving for p_rgh, Initial residual = 0.0662769, Final residual = 0.000619883, No Iterations 10
time step continuity errors : sum local = 0.00105446, global = 5.691e-17, cumulative = 7.79651e-16
DILUPBiCG:  Solving for epsilon, Initial residual = 0.0240795, Final residual = 2.39231e-05, No Iterations 2
DILUPBiCG:  Solving for k, Initial residual = 0.0504074, Final residual = 6.08495e-05, No Iterations 2
DICPCG:  Solving for G, Initial residual = 0.00366966, Final residual = 0.000364425, No Iterations 12
Before T+T solve
BiCG:  Solving for T+T, Initial residual = 0.00167248, Final residual = 0.000140492, No Iterations 1
Tres = -1.05794
TsRes = -0.0756333
ExecutionTime = 0.07 s



Wall heat fluxes [W]
movingWall -0.319607 3.84444e-15 0.323375 0.00376767
left 0.0422081 -6.9372e-17 0.794207 0.836416
right -0.506569 -1.6181e-15 -1.39333 -1.8999
bottom -0.272926 0 0.27575 0.00282426
frontAndBack 0 0 0 0
sum -1.05689 2.15697e-15 -4.8151e-08 -1.05689


Wall heat fluxes [W]
topAndBottom 0 0 0 0
left 1.95933 0 0 1.95933
right -1.97297 0 0 -1.97297
frontAndBack 0 0 0 0
sum -0.0136466 0 0 -0.0136466

Time = 17

DILUPBiCG:  Solving for Ux, Initial residual = 0.0301924, Final residual = 0.000188625, No Iterations 2
DILUPBiCG:  Solving for Uy, Initial residual = 0.0451744, Final residual = 0.000310981, No Iterations 1
DICPCG:  Solving for p_rgh, Initial residual = 0.0662403, Final residual = 0.000587956, No Iterations 10
time step continuity errors : sum local = 0.001007, global = 6.69675e-17, cumulative = 8.46618e-16
DILUPBiCG:  Solving for epsilon, Initial residual = 0.0228324, Final residual = 1.99892e-05, No Iterations 2
DILUPBiCG:  Solving for k, Initial residual = 0.0503592, Final residual = 6.39986e-05, No Iterations 2
DICPCG:  Solving for G, Initial residual = 0.0032998, Final residual = 0.000328389, No Iterations 12
Before T+T solve
BiCG:  Solving for T+T, Initial residual = 0.00168561, Final residual = 0.000143277, No Iterations 1
Tres = -1.04964
TsRes = -0.0761058
ExecutionTime = 0.08 s



Wall heat fluxes [W]
movingWall -0.316154 1.12804e-17 0.319953 0.0037982
left 0.0436355 -1.38744e-16 0.798298 0.841934
right -0.504701 2.83743e-15 -1.39246 -1.89716
bottom -0.271522 0 0.274205 0.00268296
frontAndBack 0 0 0 0
sum -1.04874 2.70997e-15 1.29014e-09 -1.04874


Wall heat fluxes [W]
topAndBottom 0 0 0 0
left 1.95733 0 0 1.95733
right -1.9712 0 0 -1.9712
frontAndBack 0 0 0 0
sum -0.0138646 0 0 -0.0138646

Time = 18

DILUPBiCG:  Solving for Ux, Initial residual = 0.0288151, Final residual = 2.25451e-05, No Iterations 2
DILUPBiCG:  Solving for Uy, Initial residual = 0.0441314, Final residual = 0.000323995, No Iterations 1
DICPCG:  Solving for p_rgh, Initial residual = 0.0655117, Final residual = 0.000432398, No Iterations 10
time step continuity errors : sum local = 0.0007608, global = -1.44525e-16, cumulative = 7.02093e-16
DILUPBiCG:  Solving for epsilon, Initial residual = 0.0220422, Final residual = 1.92338e-05, No Iterations 2
DILUPBiCG:  Solving for k, Initial residual = 0.050564, Final residual = 6.97192e-05, No Iterations 2
DICPCG:  Solving for G, Initial residual = 0.00317525, Final residual = 0.000282356, No Iterations 12
Before T+T solve
BiCG:  Solving for T+T, Initial residual = 0.00169777, Final residual = 0.000146198, No Iterations 1
Tres = -1.04117
TsRes = -0.0766354
ExecutionTime = 0.08 s



Wall heat fluxes [W]
movingWall -0.312475 2.57518e-15 0.316303 0.00382739
left 0.045494 -1.04058e-16 0.802222 0.847716
right -0.503132 -8.10232e-15 -1.3913 -1.89443
bottom -0.270253 0 0.272773 0.00252006
frontAndBack 0 0 0 0
sum -1.04037 -5.6312e-15 4.99184e-08 -1.04037


Wall heat fluxes [W]
topAndBottom 0 0 0 0
left 1.95666 0 0 1.95666
right -1.96947 0 0 -1.96947
frontAndBack 0 0 0 0
sum -0.0128133 0 0 -0.0128133

Time = 19

DILUPBiCG:  Solving for Ux, Initial residual = 0.0275714, Final residual = 1.0426e-05, No Iterations 2
DILUPBiCG:  Solving for Uy, Initial residual = 0.0436792, Final residual = 0.000340063, No Iterations 1
DICPCG:  Solving for p_rgh, Initial residual = 0.064332, Final residual = 0.000513376, No Iterations 9
time step continuity errors : sum local = 0.000883017, global = -2.77933e-16, cumulative = 4.24161e-16
DILUPBiCG:  Solving for epsilon, Initial residual = 0.0216743, Final residual = 1.98491e-05, No Iterations 2
DILUPBiCG:  Solving for k, Initial residual = 0.0507816, Final residual = 7.56124e-05, No Iterations 2
DICPCG:  Solving for G, Initial residual = 0.00308091, Final residual = 0.000285401, No Iterations 11
Before T+T solve
BiCG:  Solving for T+T, Initial residual = 0.00170942, Final residual = 0.000148946, No Iterations 1
Tres = -1.03229
TsRes = -0.0772182
ExecutionTime = 0.08 s



Wall heat fluxes [W]
movingWall -0.308642 3.0472e-17 0.312491 0.0038495
left 0.0479647 -3.4686e-17 0.806043 0.854008
right -0.501762 -1.37629e-14 -1.3901 -1.89186
bottom -0.26912 0 0.271562 0.00244227
frontAndBack 0 0 0 0
sum -1.03156 -1.37671e-14 -9.98658e-08 -1.03156


Wall heat fluxes [W]
topAndBottom 0 0 0 0
left 1.95479 0 0 1.95479
right -1.9678 0 0 -1.9678
frontAndBack 0 0 0 0
sum -0.0130075 0 0 -0.0130075

Time = 20

DILUPBiCG:  Solving for Ux, Initial residual = 0.0262059, Final residual = 7.2874e-06, No Iterations 2
DILUPBiCG:  Solving for Uy, Initial residual = 0.0437558, Final residual = 0.000348017, No Iterations 1
DICPCG:  Solving for p_rgh, Initial residual = 0.0622225, Final residual = 0.00035501, No Iterations 10
time step continuity errors : sum local = 0.000656579, global = -2.1441e-17, cumulative = 4.0272e-16
DILUPBiCG:  Solving for epsilon, Initial residual = 0.0215936, Final residual = 2.17973e-05, No Iterations 2
DILUPBiCG:  Solving for k, Initial residual = 0.0511377, Final residual = 8.2022e-05, No Iterations 2
DICPCG:  Solving for G, Initial residual = 0.00303892, Final residual = 0.000287076, No Iterations 11
Before T+T solve
BiCG:  Solving for T+T, Initial residual = 0.00171985, Final residual = 0.000151444, No Iterations 1
Tres = -1.02254
TsRes = -0.077922
ExecutionTime = 0.09 s



Wall heat fluxes [W]
movingWall -0.304494 6.15448e-16 0.308577 0.00408311
left 0.0512585 -3.12174e-16 0.809806 0.861065
right -0.500504 -1.61444e-15 -1.38883 -1.88934
bottom -0.268107 0 0.270448 0.00234111
frontAndBack 0 0 0 0
sum -1.02185 -1.31116e-15 -6.07986e-07 -1.02185


Wall heat fluxes [W]
topAndBottom 0 0 0 0
left 1.95297 0 0 1.95297
right -1.96616 0 0 -1.96616
frontAndBack 0 0 0 0
sum -0.0131853 0 0 -0.0131853

Time = 21

DILUPBiCG:  Solving for Ux, Initial residual = 0.0249418, Final residual = 5.4278e-06, No Iterations 2
DILUPBiCG:  Solving for Uy, Initial residual = 0.0428534, Final residual = 0.000351319, No Iterations 1
DICPCG:  Solving for p_rgh, Initial residual = 0.0601155, Final residual = 0.00057508, No Iterations 10
time step continuity errors : sum local = 0.00107538, global = -1.01512e-16, cumulative = 3.01208e-16
DILUPBiCG:  Solving for epsilon, Initial residual = 0.0213472, Final residual = 2.36884e-05, No Iterations 2
DILUPBiCG:  Solving for k, Initial residual = 0.0515788, Final residual = 8.81536e-05, No Iterations 2
DICPCG:  Solving for G, Initial residual = 0.00307557, Final residual = 0.000264767, No Iterations 11
Before T+T solve
BiCG:  Solving for T+T, Initial residual = 0.00172725, Final residual = 0.000154782, No Iterations 1
Tres = -1.01155
TsRes = -0.0788144
ExecutionTime = 0.09 s



Wall heat fluxes [W]
movingWall -0.299904 6.98925e-16 0.304241 0.00433679
left 0.0555938 -5.89662e-16 0.813615 0.869208
right -0.499296 -4.05534e-15 -1.38744 -1.88673
bottom -0.267269 0 0.269582 0.00231275
frontAndBack 0 0 0 0
sum -1.01088 -3.94607e-15 -2.97623e-07 -1.01088


Wall heat fluxes [W]
topAndBottom 0 0 0 0
left 1.95125 0 0 1.95125
right -1.96454 0 0 -1.96454
frontAndBack 0 0 0 0
sum -0.0132891 0 0 -0.0132891

Time = 22

DILUPBiCG:  Solving for Ux, Initial residual = 0.0236239, Final residual = 4.23609e-06, No Iterations 2
DILUPBiCG:  Solving for Uy, Initial residual = 0.0419089, Final residual = 0.000349222, No Iterations 1
DICPCG:  Solving for p_rgh, Initial residual = 0.0584617, Final residual = 0.000321716, No Iterations 11
time step continuity errors : sum local = 0.00061275, global = 2.67345e-17, cumulative = 3.27942e-16
DILUPBiCG:  Solving for epsilon, Initial residual = 0.0213398, Final residual = 2.44545e-05, No Iterations 2
DILUPBiCG:  Solving for k, Initial residual = 0.0519422, Final residual = 9.52155e-05, No Iterations 2
DICPCG:  Solving for G, Initial residual = 0.00313686, Final residual = 0.000147575, No Iterations 11
Before T+T solve
BiCG:  Solving for T+T, Initial residual = 0.001728, Final residual = 0.000157925, No Iterations 1
Tres = -0.999187
TsRes = -0.0799057
ExecutionTime = 0.09 s



Wall heat fluxes [W]
movingWall -0.294864 -1.24239e-15 0.299509 0.004645
left 0.0611045 5.2029e-16 0.817536 0.87864
right -0.49809 2.42883e-15 -1.38593 -1.88402
bottom -0.266659 0 0.268881 0.00222249
frontAndBack 0 0 0 0
sum -0.998508 1.70673e-15 -1.58792e-07 -0.998508


Wall heat fluxes [W]
topAndBottom 0 0 0 0
left 1.94961 0 0 1.94961
right -1.96293 0 0 -1.96293
frontAndBack 0 0 0 0
sum -0.0133203 0 0 -0.0133203

Time = 23

DILUPBiCG:  Solving for Ux, Initial residual = 0.0222498, Final residual = 3.93627e-06, No Iterations 2
DILUPBiCG:  Solving for Uy, Initial residual = 0.0407804, Final residual = 0.000358452, No Iterations 1
DICPCG:  Solving for p_rgh, Initial residual = 0.0556242, Final residual = 0.000247524, No Iterations 11
time step continuity errors : sum local = 0.000496283, global = 1.03235e-17, cumulative = 3.38266e-16
DILUPBiCG:  Solving for epsilon, Initial residual = 0.0210962, Final residual = 2.44829e-05, No Iterations 2
DILUPBiCG:  Solving for k, Initial residual = 0.0523943, Final residual = 0.000100871, No Iterations 2
DICPCG:  Solving for G, Initial residual = 0.00313675, Final residual = 0.000124787, No Iterations 11
Before T+T solve
BiCG:  Solving for T+T, Initial residual = 0.00172678, Final residual = 0.000161672, No Iterations 1
Tres = -0.985228
TsRes = -0.0811981
ExecutionTime = 0.1 s



Wall heat fluxes [W]
movingWall -0.289319 6.36086e-16 0.294278 0.00495916
left 0.0678839 -3.4686e-17 0.821575 0.889459
right -0.496839 -8.04306e-16 -1.38433 -1.88117
bottom -0.266254 0 0.268479 0.00222477
frontAndBack 0 0 0 0
sum -0.984529 -2.02906e-16 -8.75002e-08 -0.984529


Wall heat fluxes [W]
topAndBottom 0 0 0 0
left 1.94799 0 0 1.94799
right -1.96133 0 0 -1.96133
frontAndBack 0 0 0 0
sum -0.0133415 0 0 -0.0133415

Time = 24

DILUPBiCG:  Solving for Ux, Initial residual = 0.0207833, Final residual = 3.79769e-06, No Iterations 2
DILUPBiCG:  Solving for Uy, Initial residual = 0.039253, Final residual = 0.000372344, No Iterations 1
DICPCG:  Solving for p_rgh, Initial residual = 0.0532602, Final residual = 0.000463391, No Iterations 10
time step continuity errors : sum local = 0.000936926, global = 1.58819e-17, cumulative = 3.54148e-16
DILUPBiCG:  Solving for epsilon, Initial residual = 0.020469, Final residual = 2.5073e-05, No Iterations 2
DILUPBiCG:  Solving for k, Initial residual = 0.0526685, Final residual = 0.00010544, No Iterations 2
DICPCG:  Solving for G, Initial residual = 0.00323689, Final residual = 0.000177684, No Iterations 11
Before T+T solve
BiCG:  Solving for T+T, Initial residual = 0.0017206, Final residual = 0.00016587, No Iterations 1
Tres = -0.969546
TsRes = -0.0827072
ExecutionTime = 0.1 s



Wall heat fluxes [W]
movingWall -0.283331 3.8244e-15 0.288591 0.00526017
left 0.0760099 -3.4686e-16 0.825788 0.901798
right -0.495519 -2.02907e-15 -1.38262 -1.87814
bottom -0.265976 0 0.268244 0.00226795
frontAndBack 0 0 0 0
sum -0.968816 1.44847e-15 -2.36597e-07 -0.968816


Wall heat fluxes [W]
topAndBottom 0 0 0 0
left 1.94644 0 0 1.94644
right -1.95972 0 0 -1.95972
frontAndBack 0 0 0 0
sum -0.0132794 0 0 -0.0132794

Time = 25

DILUPBiCG:  Solving for Ux, Initial residual = 0.0192035, Final residual = 3.89209e-06, No Iterations 2
DILUPBiCG:  Solving for Uy, Initial residual = 0.0376044, Final residual = 3.35533e-06, No Iterations 2
DICPCG:  Solving for p_rgh, Initial residual = 0.05087, Final residual = 0.000441493, No Iterations 10
time step continuity errors : sum local = 0.000881503, global = 8.99967e-17, cumulative = 4.44145e-16
DILUPBiCG:  Solving for epsilon, Initial residual = 0.0194523, Final residual = 2.57727e-05, No Iterations 2
DILUPBiCG:  Solving for k, Initial residual = 0.0525353, Final residual = 0.000108502, No Iterations 2
DICPCG:  Solving for G, Initial residual = 0.00340493, Final residual = 0.000293406, No Iterations 11
Before T+T solve
BiCG:  Solving for T+T, Initial residual = 0.00170884, Final residual = 0.000170023, No Iterations 1
Tres = -0.952121
TsRes = -0.0844201
ExecutionTime = 0.1 s



Wall heat fluxes [W]
movingWall -0.276969 -1.94847e-15 0.282497 0.00552863
left 0.0855141 -3.12174e-16 0.830198 0.915712
right -0.494112 8.92415e-15 -1.38081 -1.87493
bottom -0.265785 0 0.268117 0.00233237
frontAndBack 0 0 0 0
sum -0.951352 6.6635e-15 -5.56923e-07 -0.951353


Wall heat fluxes [W]
topAndBottom 0 0 0 0
left 1.94488 0 0 1.94488
right -1.95811 0 0 -1.95811
frontAndBack 0 0 0 0
sum -0.0132272 0 0 -0.0132272

Time = 26

DILUPBiCG:  Solving for Ux, Initial residual = 0.0176975, Final residual = 4.30375e-06, No Iterations 2
DILUPBiCG:  Solving for Uy, Initial residual = 0.0355705, Final residual = 3.30946e-06, No Iterations 2
DICPCG:  Solving for p_rgh, Initial residual = 0.0484442, Final residual = 0.000448753, No Iterations 10
time step continuity errors : sum local = 0.000952942, global = 4.07635e-17, cumulative = 4.84908e-16
DILUPBiCG:  Solving for epsilon, Initial residual = 0.0183037, Final residual = 2.59578e-05, No Iterations 2
DILUPBiCG:  Solving for k, Initial residual = 0.0518885, Final residual = 0.000109599, No Iterations 2
DICPCG:  Solving for G, Initial residual = 0.00363461, Final residual = 0.000266929, No Iterations 12
Before T+T solve
BiCG:  Solving for T+T, Initial residual = 0.00168968, Final residual = 0.000158445, No Iterations 2
Tres = -0.932633
TsRes = -0.0816216
ExecutionTime = 0.11 s



Wall heat fluxes [W]
movingWall -0.269972 -6.79532e-16 0.276062 0.00608989
left 0.0967235 -7.63092e-16 0.834805 0.931528
right -0.492713 2.84512e-15 -1.37892 -1.87164
bottom -0.265586 0 0.268056 0.00246996
frontAndBack 0 0 0 0
sum -0.931547 1.40249e-15 -1.18376e-07 -0.931547


Wall heat fluxes [W]
topAndBottom 0 0 0 0
left 2.09285 0 0 2.09285
right -1.95322 0 0 -1.95322
frontAndBack 0 0 0 0
sum 0.139624 0 0 0.139624

Time = 27

DILUPBiCG:  Solving for Ux, Initial residual = 0.016363, Final residual = 2.11623e-05, No Iterations 2
DILUPBiCG:  Solving for Uy, Initial residual = 0.0327506, Final residual = 3.47339e-06, No Iterations 2
DICPCG:  Solving for p_rgh, Initial residual = 0.0436904, Final residual = 0.00036269, No Iterations 11
time step continuity errors : sum local = 0.000804925, global = 1.82641e-16, cumulative = 6.67549e-16
DILUPBiCG:  Solving for epsilon, Initial residual = 0.0169071, Final residual = 2.55885e-05, No Iterations 2
DILUPBiCG:  Solving for k, Initial residual = 0.0506931, Final residual = 0.000109362, No Iterations 2
DICPCG:  Solving for G, Initial residual = 0.00387773, Final residual = 0.000346073, No Iterations 12
Before T+T solve
BiCG:  Solving for T+T, Initial residual = 0.00166393, Final residual = 0.000156548, No Iterations 2
Tres = -0.912037
TsRes = -0.0796784
ExecutionTime = 0.11 s



Wall heat fluxes [W]
movingWall -0.262792 1.98701e-15 0.268879 0.00608738
left 0.1088 4.50918e-16 0.839796 0.948596
right -0.491519 5.66757e-15 -1.37677 -1.86829
bottom -0.265455 0 0.268099 0.00264366
frontAndBack 0 0 0 0
sum -0.910966 8.1055e-15 9.99728e-08 -0.910966


Wall heat fluxes [W]
topAndBottom 0 0 0 0
left 2.05998 0 0 2.05998
right -1.94831 0 0 -1.94831
frontAndBack 0 0 0 0
sum 0.111674 0 0 0.111674

Time = 28

DILUPBiCG:  Solving for Ux, Initial residual = 0.0149463, Final residual = 2.08616e-05, No Iterations 2
DILUPBiCG:  Solving for Uy, Initial residual = 0.0299318, Final residual = 3.47468e-06, No Iterations 2
DICPCG:  Solving for p_rgh, Initial residual = 0.0400466, Final residual = 0.000375161, No Iterations 11
time step continuity errors : sum local = 0.000830139, global = 6.24687e-17, cumulative = 7.30018e-16
DILUPBiCG:  Solving for epsilon, Initial residual = 0.0154724, Final residual = 2.50773e-05, No Iterations 2
DILUPBiCG:  Solving for k, Initial residual = 0.0491932, Final residual = 0.000107419, No Iterations 2
DICPCG:  Solving for G, Initial residual = 0.00429824, Final residual = 0.000317071, No Iterations 11
Before T+T solve
BiCG:  Solving for T+T, Initial residual = 0.00163209, Final residual = 0.000152264, No Iterations 2
Tres = -0.890943
TsRes = -0.0776767
ExecutionTime = 0.12 s



Wall heat fluxes [W]
movingWall -0.255963 -2.56798e-15 0.262205 0.00624161
left 0.121663 7.28406e-16 0.845284 0.966947
right -0.490111 4.06572e-15 -1.37579 -1.8659
bottom -0.265446 0 0.268299 0.00285274
frontAndBack 0 0 0 0
sum -0.889858 2.22615e-15 -5.92162e-07 -0.889858


Wall heat fluxes [W]
topAndBottom 0 0 0 0
left 2.04315 0 0 2.04315
right -1.94339 0 0 -1.94339
frontAndBack 0 0 0 0
sum 0.0997614 0 0 0.0997614

Time = 29

DILUPBiCG:  Solving for Ux, Initial residual = 0.013791, Final residual = 1.24544e-05, No Iterations 2
DILUPBiCG:  Solving for Uy, Initial residual = 0.0271919, Final residual = 3.12301e-06, No Iterations 2
DICPCG:  Solving for p_rgh, Initial residual = 0.0380466, Final residual = 0.000323381, No Iterations 11
time step continuity errors : sum local = 0.000729601, global = 2.96329e-16, cumulative = 1.02635e-15
DILUPBiCG:  Solving for epsilon, Initial residual = 0.0139084, Final residual = 2.52942e-05, No Iterations 2
DILUPBiCG:  Solving for k, Initial residual = 0.0474974, Final residual = 0.000104578, No Iterations 2
DICPCG:  Solving for G, Initial residual = 0.00439151, Final residual = 0.000339201, No Iterations 11
Before T+T solve
BiCG:  Solving for T+T, Initial residual = 0.00159428, Final residual = 0.000149245, No Iterations 2
Tres = -0.869051
TsRes = -0.0760769
ExecutionTime = 0.12 s



Wall heat fluxes [W]
movingWall -0.249194 1.97815e-15 0.25531 0.00611616
left 0.135114 -1.28338e-15 0.850863 0.985976
right -0.488583 1.42091e-14 -1.37434 -1.86292
bottom -0.265275 0 0.268168 0.0028938
frontAndBack 0 0 0 0
sum -0.867938 1.49039e-14 -2.46869e-07 -0.867939


Wall heat fluxes [W]
topAndBottom 0 0 0 0
left 2.03344 0 0 2.03344
right -1.93856 0 0 -1.93856
frontAndBack 0 0 0 0
sum 0.0948836 0 0 0.0948836

Time = 30

DILUPBiCG:  Solving for Ux, Initial residual = 0.0126129, Final residual = 5.68655e-06, No Iterations 2
DILUPBiCG:  Solving for Uy, Initial residual = 0.0247319, Final residual = 2.94069e-06, No Iterations 2
DICPCG:  Solving for p_rgh, Initial residual = 0.035958, Final residual = 0.000217869, No Iterations 11
time step continuity errors : sum local = 0.000502015, global = -2.93285e-16, cumulative = 7.33062e-16
DILUPBiCG:  Solving for epsilon, Initial residual = 0.0124195, Final residual = 2.68101e-05, No Iterations 2
DILUPBiCG:  Solving for k, Initial residual = 0.0454085, Final residual = 0.000101119, No Iterations 2
DICPCG:  Solving for G, Initial residual = 0.00437661, Final residual = 0.00032796, No Iterations 11
Before T+T solve
BiCG:  Solving for T+T, Initial residual = 0.00155843, Final residual = 0.000146542, No Iterations 2
Tres = -0.846839
TsRes = -0.0746597
ExecutionTime = 0.12 s



Wall heat fluxes [W]
movingWall -0.242672 -3.32478e-15 0.248631 0.00595839
left 0.148913 5.54976e-16 0.856405 1.00532
right -0.486941 -9.7433e-15 -1.37296 -1.8599
bottom -0.265 0 0.267921 0.00292087
frontAndBack 0 0 0 0
sum -0.845701 -1.25131e-14 -2.85576e-07 -0.845702


Wall heat fluxes [W]
topAndBottom 0 0 0 0
left 2.02493 0 0 2.02493
right -1.93387 0 0 -1.93387
frontAndBack 0 0 0 0
sum 0.0910546 0 0 0.0910546

Time = 31

DILUPBiCG:  Solving for Ux, Initial residual = 0.0116477, Final residual = 4.01476e-06, No Iterations 2
DILUPBiCG:  Solving for Uy, Initial residual = 0.0219094, Final residual = 3.05913e-06, No Iterations 2
DICPCG:  Solving for p_rgh, Initial residual = 0.0336656, Final residual = 0.000149475, No Iterations 11
time step continuity errors : sum local = 0.000332162, global = -1.69407e-17, cumulative = 7.16122e-16
DILUPBiCG:  Solving for epsilon, Initial residual = 0.0112677, Final residual = 3.14493e-05, No Iterations 2
DILUPBiCG:  Solving for k, Initial residual = 0.0429823, Final residual = 9.82334e-05, No Iterations 2
DICPCG:  Solving for G, Initial residual = 0.00431541, Final residual = 0.000306009, No Iterations 11
Before T+T solve
BiCG:  Solving for T+T, Initial residual = 0.00152159, Final residual = 0.000144269, No Iterations 2
Tres = -0.824586
TsRes = -0.0733791
ExecutionTime = 0.13 s



Wall heat fluxes [W]
movingWall -0.236464 -6.56586e-16 0.242193 0.00572916
left 0.162812 3.4686e-17 0.861872 1.02468
right -0.485208 -4.04716e-16 -1.37161 -1.85682
bottom -0.264569 0 0.267547 0.00297756
frontAndBack 0 0 0 0
sum -0.823429 -1.02662e-15 -1.02694e-07 -0.823429


Wall heat fluxes [W]
topAndBottom 0 0 0 0
left 2.01775 0 0 2.01775
right -1.92931 0 0 -1.92931
frontAndBack 0 0 0 0
sum 0.0884352 0 0 0.0884352

Time = 32

DILUPBiCG:  Solving for Ux, Initial residual = 0.0108357, Final residual = 3.27829e-06, No Iterations 2
DILUPBiCG:  Solving for Uy, Initial residual = 0.0194318, Final residual = 3.14114e-06, No Iterations 2
DICPCG:  Solving for p_rgh, Initial residual = 0.0312696, Final residual = 0.000181398, No Iterations 11
time step continuity errors : sum local = 0.000396777, global = 4.86779e-16, cumulative = 1.2029e-15
DILUPBiCG:  Solving for epsilon, Initial residual = 0.0105345, Final residual = 4.72188e-05, No Iterations 2
DILUPBiCG:  Solving for k, Initial residual = 0.0406829, Final residual = 0.000104551, No Iterations 2
DICPCG:  Solving for G, Initial residual = 0.00422003, Final residual = 0.000327006, No Iterations 11
Before T+T solve
BiCG:  Solving for T+T, Initial residual = 0.00148536, Final residual = 0.000142432, No Iterations 2
Tres = -0.802566
TsRes = -0.0721747
ExecutionTime = 0.13 s



Wall heat fluxes [W]
movingWall -0.230648 3.26347e-15 0.236121 0.0054731
left 0.17656 6.9372e-17 0.867245 1.04381
right -0.483403 1.95155e-14 -1.37033 -1.85373
bottom -0.263902 0 0.266965 0.00306242
frontAndBack 0 0 0 0
sum -0.801393 2.28483e-14 -1.15512e-07 -0.801393


Wall heat fluxes [W]
topAndBottom 0 0 0 0
left 2.01154 0 0 2.01154
right -1.92486 0 0 -1.92486
frontAndBack 0 0 0 0
sum 0.0866721 0 0 0.0866721

Time = 33

DILUPBiCG:  Solving for Ux, Initial residual = 0.0100848, Final residual = 2.81756e-06, No Iterations 2
DILUPBiCG:  Solving for Uy, Initial residual = 0.0172157, Final residual = 9.53282e-06, No Iterations 2
DICPCG:  Solving for p_rgh, Initial residual = 0.028484, Final residual = 0.000236749, No Iterations 7
time step continuity errors : sum local = 0.0007676, global = -8.86738e-17, cumulative = 1.11423e-15
DILUPBiCG:  Solving for epsilon, Initial residual = 0.00998376, Final residual = 4.05784e-07, No Iterations 3
DILUPBiCG:  Solving for k, Initial residual = 0.0384804, Final residual = 5.63499e-06, No Iterations 3
DICPCG:  Solving for G, Initial residual = 0.00416335, Final residual = 0.000269158, No Iterations 11
Before T+T solve
BiCG:  Solving for T+T, Initial residual = 0.00145594, Final residual = 0.000141036, No Iterations 2
Tres = -0.781024
TsRes = -0.0710087
ExecutionTime = 0.13 s



Wall heat fluxes [W]
movingWall -0.225253 1.30527e-15 0.230466 0.00521299
left 0.189933 -9.71208e-16 0.872523 1.06246
right -0.481545 -4.87946e-15 -1.36911 -1.85065
bottom -0.262975 0 0.266119 0.00314413
frontAndBack 0 0 0 0
sum -0.77984 -4.54539e-15 -1.30054e-07 -0.77984


Wall heat fluxes [W]
topAndBottom 0 0 0 0
left 2.00621 0 0 2.00621
right -1.92049 0 0 -1.92049
frontAndBack 0 0 0 0
sum 0.0857152 0 0 0.0857152

Time = 34

DILUPBiCG:  Solving for Ux, Initial residual = 0.00932753, Final residual = 2.45442e-06, No Iterations 2
DILUPBiCG:  Solving for Uy, Initial residual = 0.0154451, Final residual = 5.5613e-06, No Iterations 2
DICPCG:  Solving for p_rgh, Initial residual = 0.0260492, Final residual = 0.000250376, No Iterations 11
time step continuity errors : sum local = 0.000570755, global = 1.52201e-16, cumulative = 1.26643e-15
DILUPBiCG:  Solving for epsilon, Initial residual = 0.00962431, Final residual = 4.30883e-05, No Iterations 2
DILUPBiCG:  Solving for k, Initial residual = 0.0363725, Final residual = 5.29006e-05, No Iterations 2
DICPCG:  Solving for G, Initial residual = 0.00405356, Final residual = 0.000194241, No Iterations 11
Before T+T solve
BiCG:  Solving for T+T, Initial residual = 0.00142611, Final residual = 0.000140268, No Iterations 2
Tres = -0.760185
TsRes = -0.0698286
ExecutionTime = 0.14 s



Wall heat fluxes [W]
movingWall -0.220308 6.54589e-16 0.225234 0.00492617
left 0.202706 1.04058e-16 0.877703 1.08041
right -0.479654 4.07375e-15 -1.36795 -1.8476
bottom -0.261738 0 0.265012 0.00327458
frontAndBack 0 0 0 0
sum -0.758994 4.8324e-15 -1.17895e-07 -0.758994


Wall heat fluxes [W]
topAndBottom 0 0 0 0
left 2.00167 0 0 2.00167
right -1.91618 0 0 -1.91618
frontAndBack 0 0 0 0
sum 0.0854927 0 0 0.0854927

Time = 35

DILUPBiCG:  Solving for Ux, Initial residual = 0.00870375, Final residual = 8.35936e-05, No Iterations 1
DILUPBiCG:  Solving for Uy, Initial residual = 0.0139309, Final residual = 2.73262e-05, No Iterations 2
DICPCG:  Solving for p_rgh, Initial residual = 0.0233046, Final residual = 0.000225935, No Iterations 6
time step continuity errors : sum local = 0.00049095, global = -3.49401e-17, cumulative = 1.23149e-15
DILUPBiCG:  Solving for epsilon, Initial residual = 0.00923394, Final residual = 1.7893e-05, No Iterations 2
DILUPBiCG:  Solving for k, Initial residual = 0.0344599, Final residual = 5.17278e-05, No Iterations 2
DICPCG:  Solving for G, Initial residual = 0.00393845, Final residual = 0.000138588, No Iterations 11
Before T+T solve
BiCG:  Solving for T+T, Initial residual = 0.00139881, Final residual = 0.000114069, No Iterations 3
Tres = -0.741177
TsRes = -0.054648
ExecutionTime = 0.14 s



Wall heat fluxes [W]
movingWall -0.215942 7.0009e-16 0.220488 0.00454656
left 0.214665 6.9372e-17 0.882796 1.09746
right -0.477661 -1.62843e-15 -1.36684 -1.84451
bottom -0.260287 0 0.263559 0.00327146
frontAndBack 0 0 0 0
sum -0.739226 -8.58968e-16 -9.89784e-08 -0.739226


Wall heat fluxes [W]
topAndBottom 0 0 0 0
left 2.35537 0 0 2.35537
right -1.90052 0 0 -1.90052
frontAndBack 0 0 0 0
sum 0.454848 0 0 0.454848

Time = 36

DILUPBiCG:  Solving for Ux, Initial residual = 0.00792243, Final residual = 7.30428e-05, No Iterations 1
DILUPBiCG:  Solving for Uy, Initial residual = 0.0127381, Final residual = 2.81612e-05, No Iterations 2
DICPCG:  Solving for p_rgh, Initial residual = 0.0201927, Final residual = 8.30279e-05, No Iterations 7
time step continuity errors : sum local = 0.00025213, global = -2.8058e-16, cumulative = 9.50908e-16
DILUPBiCG:  Solving for epsilon, Initial residual = 0.00886041, Final residual = 1.13078e-05, No Iterations 2
DILUPBiCG:  Solving for k, Initial residual = 0.032762, Final residual = 5.41302e-05, No Iterations 2
DICPCG:  Solving for G, Initial residual = 0.00374764, Final residual = 0.000185017, No Iterations 11
Before T+T solve
BiCG:  Solving for T+T, Initial residual = 0.00137999, Final residual = 0.000135724, No Iterations 1
Tres = -0.721712
TsRes = -0.0575601
ExecutionTime = 0.14 s



Wall heat fluxes [W]
movingWall -0.211931 -1.33772e-15 0.216304 0.00437265
left 0.226302 -1.80367e-15 0.887689 1.11399
right -0.476299 -9.77902e-15 -1.36591 -1.8422
bottom -0.258738 0 0.261913 0.00317488
frontAndBack 0 0 0 0
sum -0.720665 -1.29204e-14 -1.13311e-07 -0.720666


Wall heat fluxes [W]
topAndBottom 0 0 0 0
left 1.89014 0 0 1.89014
right -1.89908 0 0 -1.89908
frontAndBack 0 0 0 0
sum -0.00893763 0 0 -0.00893763

Time = 37

DILUPBiCG:  Solving for Ux, Initial residual = 0.00711338, Final residual = 6.29025e-05, No Iterations 1
DILUPBiCG:  Solving for Uy, Initial residual = 0.0122033, Final residual = 4.94858e-06, No Iterations 2
DICPCG:  Solving for p_rgh, Initial residual = 0.0185059, Final residual = 0.000155813, No Iterations 7
time step continuity errors : sum local = 0.00052765, global = 2.72639e-17, cumulative = 9.78172e-16
DILUPBiCG:  Solving for epsilon, Initial residual = 0.00851879, Final residual = 9.41669e-06, No Iterations 2
DILUPBiCG:  Solving for k, Initial residual = 0.0312262, Final residual = 5.9676e-05, No Iterations 2
DICPCG:  Solving for G, Initial residual = 0.00434999, Final residual = 0.000399148, No Iterations 12
Before T+T solve
BiCG:  Solving for T+T, Initial residual = 0.00131608, Final residual = 0.000111277, No Iterations 2
Tres = -0.7046
TsRes = -0.0557571
ExecutionTime = 0.15 s



Wall heat fluxes [W]
movingWall -0.208705 1.96389e-15 0.213231 0.00452628
left 0.236617 -2.08116e-15 0.893337 1.12995
right -0.474071 1.62441e-15 -1.3678 -1.84187
bottom -0.257298 0 0.261228 0.00393038
frontAndBack 0 0 0 0
sum -0.703457 1.50714e-15 -5.36232e-09 -0.703457


Wall heat fluxes [W]
topAndBottom 0 0 0 0
left 1.96692 0 0 1.96692
right -1.89531 0 0 -1.89531
frontAndBack 0 0 0 0
sum 0.0716087 0 0 0.0716087

Time = 38

DILUPBiCG:  Solving for Ux, Initial residual = 0.00730818, Final residual = 6.2572e-05, No Iterations 1
DILUPBiCG:  Solving for Uy, Initial residual = 0.0105592, Final residual = 1.99033e-06, No Iterations 2
DICPCG:  Solving for p_rgh, Initial residual = 0.0151192, Final residual = 0.000136296, No Iterations 11
time step continuity errors : sum local = 0.000308207, global = 1.7523e-16, cumulative = 1.1534e-15
DILUPBiCG:  Solving for epsilon, Initial residual = 0.00823574, Final residual = 8.80071e-06, No Iterations 2
DILUPBiCG:  Solving for k, Initial residual = 0.0296283, Final residual = 6.93905e-05, No Iterations 2
DICPCG:  Solving for G, Initial residual = 0.00386871, Final residual = 0.000139775, No Iterations 11
Before T+T solve
BiCG:  Solving for T+T, Initial residual = 0.00130049, Final residual = 0.000118012, No Iterations 2
Tres = -0.687339
TsRes = -0.0556985
ExecutionTime = 0.15 s



Wall heat fluxes [W]
movingWall -0.205163 6.72176e-18 0.209029 0.0038655
left 0.245984 -2.01179e-15 0.898179 1.14416
right -0.472131 1.14068e-14 -1.36542 -1.83755
bottom -0.254875 0 0.258212 0.00333648
frontAndBack 0 0 0 0
sum -0.686185 9.40177e-15 -1.40765e-07 -0.686185


Wall heat fluxes [W]
topAndBottom 0 0 0 0
left 1.96649 0 0 1.96649
right -1.89166 0 0 -1.89166
frontAndBack 0 0 0 0
sum 0.0748237 0 0 0.0748237

Time = 39

DILUPBiCG:  Solving for Ux, Initial residual = 0.00687212, Final residual = 5.93825e-05, No Iterations 1
DILUPBiCG:  Solving for Uy, Initial residual = 0.0107223, Final residual = 1.67275e-06, No Iterations 2
DICPCG:  Solving for p_rgh, Initial residual = 0.0131988, Final residual = 0.000124416, No Iterations 11
time step continuity errors : sum local = 0.000278833, global = 9.76735e-17, cumulative = 1.25108e-15
DILUPBiCG:  Solving for epsilon, Initial residual = 0.00789332, Final residual = 8.26845e-06, No Iterations 2
DILUPBiCG:  Solving for k, Initial residual = 0.0280265, Final residual = 8.14201e-05, No Iterations 2
DICPCG:  Solving for G, Initial residual = 0.00351131, Final residual = 0.000344725, No Iterations 11
Before T+T solve
BiCG:  Solving for T+T, Initial residual = 0.00128466, Final residual = 0.000122677, No Iterations 2
Tres = -0.671426
TsRes = -0.0551187
ExecutionTime = 0.15 s



Wall heat fluxes [W]
movingWall -0.20211 9.864e-16 0.205881 0.00377069
left 0.254439 3.05237e-15 0.902747 1.15719
right -0.470097 -1.40662e-17 -1.36474 -1.83484
bottom -0.2525 0 0.256114 0.00361455
frontAndBack 0 0 0 0
sum -0.670267 4.0247e-15 -1.71541e-07 -0.670268


Wall heat fluxes [W]
topAndBottom 0 0 0 0
left 1.96256 0 0 1.96256
right -1.88814 0 0 -1.88814
frontAndBack 0 0 0 0
sum 0.0744135 0 0 0.0744135

Time = 40

DILUPBiCG:  Solving for Ux, Initial residual = 0.00670879, Final residual = 5.78004e-05, No Iterations 1
DILUPBiCG:  Solving for Uy, Initial residual = 0.0104822, Final residual = 1.47054e-06, No Iterations 2
DICPCG:  Solving for p_rgh, Initial residual = 0.0119859, Final residual = 0.000107958, No Iterations 7
time step continuity errors : sum local = 0.000361215, global = -1.05983e-18, cumulative = 1.25002e-15
DILUPBiCG:  Solving for epsilon, Initial residual = 0.00753368, Final residual = 7.42384e-06, No Iterations 2
DILUPBiCG:  Solving for k, Initial residual = 0.0264717, Final residual = 9.0539e-05, No Iterations 2
DICPCG:  Solving for G, Initial residual = 0.00364138, Final residual = 0.000263889, No Iterations 12
Before T+T solve
BiCG:  Solving for T+T, Initial residual = 0.00126777, Final residual = 0.000103785, No Iterations 3
Tres = -0.65701
TsRes = -0.0439025
ExecutionTime = 0.16 s



Wall heat fluxes [W]
movingWall -0.199367 3.72795e-17 0.202919 0.00355188
left 0.262038 2.08116e-16 0.907315 1.16935
right -0.46796 1.22891e-15 -1.3637 -1.83166
bottom -0.24995 0 0.253464 0.00351409
frontAndBack 0 0 0 0
sum -0.655239 1.47431e-15 1.50642e-07 -0.655239


Wall heat fluxes [W]
topAndBottom 0 0 0 0
left 2.24215 0 0 2.24215
right -1.87583 0 0 -1.87583
frontAndBack 0 0 0 0
sum 0.366318 0 0 0.366318

Time = 41

DILUPBiCG:  Solving for Ux, Initial residual = 0.00648707, Final residual = 5.80369e-05, No Iterations 1
DILUPBiCG:  Solving for Uy, Initial residual = 0.0104314, Final residual = 1.33389e-06, No Iterations 2
DICPCG:  Solving for p_rgh, Initial residual = 0.0108852, Final residual = 0.000102407, No Iterations 10
time step continuity errors : sum local = 0.000231294, global = -5.37337e-17, cumulative = 1.19628e-15
DILUPBiCG:  Solving for epsilon, Initial residual = 0.00722095, Final residual = 6.63656e-06, No Iterations 2
DILUPBiCG:  Solving for k, Initial residual = 0.0249748, Final residual = 9.42915e-05, No Iterations 2
DICPCG:  Solving for G, Initial residual = 0.00348363, Final residual = 0.000266221, No Iterations 12
Before T+T solve
BiCG:  Solving for T+T, Initial residual = 0.00125811, Final residual = 0.000111928, No Iterations 1
Tres = -0.642428
TsRes = -0.0471117
ExecutionTime = 0.16 s



Wall heat fluxes [W]
movingWall -0.196847 3.02884e-15 0.200255 0.00340804
left 0.269184 6.9372e-17 0.911741 1.18093
right -0.466246 -6.52436e-15 -1.36287 -1.82912
bottom -0.247452 0 0.250874 0.0034215
frontAndBack 0 0 0 0
sum -0.64136 -3.42615e-15 1.62549e-07 -0.64136


Wall heat fluxes [W]
topAndBottom 0 0 0 0
left 1.86575 0 0 1.86575
right -1.87467 0 0 -1.87467
frontAndBack 0 0 0 0
sum -0.00891868 0 0 -0.00891868

Time = 42

DILUPBiCG:  Solving for Ux, Initial residual = 0.00621252, Final residual = 1.33497e-06, No Iterations 2
DILUPBiCG:  Solving for Uy, Initial residual = 0.0104366, Final residual = 1.31419e-06, No Iterations 2
DICPCG:  Solving for p_rgh, Initial residual = 0.0111587, Final residual = 7.02387e-05, No Iterations 10
time step continuity errors : sum local = 0.000159147, global = 2.22081e-16, cumulative = 1.41836e-15
DILUPBiCG:  Solving for epsilon, Initial residual = 0.00691799, Final residual = 6.00793e-06, No Iterations 2
DILUPBiCG:  Solving for k, Initial residual = 0.0235487, Final residual = 9.32159e-05, No Iterations 2
DICPCG:  Solving for G, Initial residual = 0.00392855, Final residual = 0.000355074, No Iterations 12
Before T+T solve
BiCG:  Solving for T+T, Initial residual = 0.0011992, Final residual = 0.000112019, No Iterations 1
Tres = -0.629373
TsRes = -0.0492118
ExecutionTime = 0.16 s



Wall heat fluxes [W]
movingWall -0.194933 6.56424e-16 0.198477 0.00354386
left 0.275565 1.10995e-15 0.916759 1.19232
right -0.463673 9.37986e-15 -1.36431 -1.82798
bottom -0.245277 0 0.249069 0.00379249
frontAndBack 0 0 0 0
sum -0.628319 1.11462e-14 8.3334e-08 -0.628319


Wall heat fluxes [W]
topAndBottom 0 0 0 0
left 1.85554 0 0 1.85554
right -1.87349 0 0 -1.87349
frontAndBack 0 0 0 0
sum -0.0179444 0 0 -0.0179444

Time = 43

DILUPBiCG:  Solving for Ux, Initial residual = 0.00661684, Final residual = 5.91428e-05, No Iterations 1
DILUPBiCG:  Solving for Uy, Initial residual = 0.00973548, Final residual = 1.22157e-06, No Iterations 2
DICPCG:  Solving for p_rgh, Initial residual = 0.0110553, Final residual = 8.35268e-05, No Iterations 5
time step continuity errors : sum local = 0.000311062, global = -1.3182e-16, cumulative = 1.28654e-15
DILUPBiCG:  Solving for epsilon, Initial residual = 0.00665062, Final residual = 5.52e-06, No Iterations 2
DILUPBiCG:  Solving for k, Initial residual = 0.0221841, Final residual = 8.84074e-05, No Iterations 2
DICPCG:  Solving for G, Initial residual = 0.00340842, Final residual = 0.00029545, No Iterations 11
Before T+T solve
BiCG:  Solving for T+T, Initial residual = 0.00118653, Final residual = 0.000115998, No Iterations 1
Tres = -0.616102
TsRes = -0.0521195
ExecutionTime = 0.17 s



Wall heat fluxes [W]
movingWall -0.192622 -9.85021e-16 0.195655 0.00303367
left 0.281254 -6.24348e-16 0.921014 1.20227
right -0.461173 -4.49653e-15 -1.36242 -1.82359
bottom -0.242469 0 0.245748 0.00327914
frontAndBack 0 0 0 0
sum -0.615009 -6.1059e-15 -2.22868e-08 -0.615009


Wall heat fluxes [W]
topAndBottom 0 0 0 0
left 1.86676 0 0 1.86676
right -1.87232 0 0 -1.87232
frontAndBack 0 0 0 0
sum -0.00555631 0 0 -0.00555631

Time = 44

DILUPBiCG:  Solving for Ux, Initial residual = 0.00650513, Final residual = 6.01892e-05, No Iterations 1
DILUPBiCG:  Solving for Uy, Initial residual = 0.010125, Final residual = 1.09152e-06, No Iterations 2
DICPCG:  Solving for p_rgh, Initial residual = 0.01119, Final residual = 6.57054e-05, No Iterations 10
time step continuity errors : sum local = 0.000156493, global = -8.60268e-17, cumulative = 1.20052e-15
DILUPBiCG:  Solving for epsilon, Initial residual = 0.00638006, Final residual = 5.15606e-06, No Iterations 2
DILUPBiCG:  Solving for k, Initial residual = 0.0209274, Final residual = 8.27391e-05, No Iterations 2
DICPCG:  Solving for G, Initial residual = 0.00307268, Final residual = 0.000294593, No Iterations 11
Before T+T solve
BiCG:  Solving for T+T, Initial residual = 0.00117469, Final residual = 8.22493e-05, No Iterations 3
Tres = -0.604525
TsRes = -0.0415387
ExecutionTime = 0.17 s



Wall heat fluxes [W]
movingWall -0.190487 -3.34338e-15 0.193454 0.00296677
left 0.286255 1.38744e-15 0.924868 1.21112
right -0.458706 -2.44124e-15 -1.36138 -1.82008
bottom -0.239726 0 0.243057 0.00333034
frontAndBack 0 0 0 0
sum -0.602664 -4.39718e-15 4.56634e-08 -0.602664


Wall heat fluxes [W]
topAndBottom 0 0 0 0
left 2.25157 0 0 2.25157
right -1.86138 0 0 -1.86138
frontAndBack 0 0 0 0
sum 0.390186 0 0 0.390186

Time = 45

DILUPBiCG:  Solving for Ux, Initial residual = 0.00647271, Final residual = 6.12887e-05, No Iterations 1
DILUPBiCG:  Solving for Uy, Initial residual = 0.009646, Final residual = 1.04358e-06, No Iterations 2
DICPCG:  Solving for p_rgh, Initial residual = 0.0107442, Final residual = 0.000100988, No Iterations 5
time step continuity errors : sum local = 0.000312694, global = -1.30231e-16, cumulative = 1.07029e-15
DILUPBiCG:  Solving for epsilon, Initial residual = 0.00610299, Final residual = 4.80771e-06, No Iterations 2
DILUPBiCG:  Solving for k, Initial residual = 0.0198017, Final residual = 7.58333e-05, No Iterations 2
DICPCG:  Solving for G, Initial residual = 0.00304274, Final residual = 0.000245622, No Iterations 11
Before T+T solve
BiCG:  Solving for T+T, Initial residual = 0.00117811, Final residual = 0.000104831, No Iterations 1
Tres = -0.592604
TsRes = -0.0449929
ExecutionTime = 0.17 s



Wall heat fluxes [W]
movingWall -0.188509 1.01386e-15 0.191354 0.00284518
left 0.290921 -1.87304e-15 0.928692 1.21961
right -0.456903 -5.71182e-15 -1.36028 -1.81718
bottom -0.23702 0 0.240233 0.0032131
frontAndBack 0 0 0 0
sum -0.591511 -6.571e-15 1.02204e-07 -0.591511


Wall heat fluxes [W]
topAndBottom 0 0 0 0
left 1.84361 0 0 1.84361
right -1.86041 0 0 -1.86041
frontAndBack 0 0 0 0
sum -0.0167945 0 0 -0.0167945

Time = 46

DILUPBiCG:  Solving for Ux, Initial residual = 0.00596658, Final residual = 2.34135e-06, No Iterations 2
DILUPBiCG:  Solving for Uy, Initial residual = 0.00961284, Final residual = 1.00254e-06, No Iterations 2
DICPCG:  Solving for p_rgh, Initial residual = 0.0107369, Final residual = 6.18599e-05, No Iterations 6
time step continuity errors : sum local = 0.000203009, global = 2.18376e-16, cumulative = 1.28866e-15
DILUPBiCG:  Solving for epsilon, Initial residual = 0.00579159, Final residual = 4.47306e-06, No Iterations 2
DILUPBiCG:  Solving for k, Initial residual = 0.0187825, Final residual = 6.8636e-05, No Iterations 2
DICPCG:  Solving for G, Initial residual = 0.00366044, Final residual = 0.000340942, No Iterations 12
Before T+T solve
BiCG:  Solving for T+T, Initial residual = 0.00113273, Final residual = 0.000105086, No Iterations 1
Tres = -0.582084
TsRes = -0.0470265
ExecutionTime = 0.18 s



Wall heat fluxes [W]
movingWall -0.187203 -6.73455e-16 0.190371 0.00316841
left 0.295264 -1.52618e-15 0.933379 1.22864
right -0.454141 1.14382e-14 -1.36227 -1.81641
bottom -0.234908 0 0.238518 0.00361066
frontAndBack 0 0 0 0
sum -0.580987 9.23852e-15 2.47122e-08 -0.580987


Wall heat fluxes [W]
topAndBottom 0 0 0 0
left 1.84057 0 0 1.84057
right -1.85933 0 0 -1.85933
frontAndBack 0 0 0 0
sum -0.0187541 0 0 -0.0187541

Time = 47

DILUPBiCG:  Solving for Ux, Initial residual = 0.00635125, Final residual = 5.71362e-05, No Iterations 1
DILUPBiCG:  Solving for Uy, Initial residual = 0.00897412, Final residual = 9.83082e-07, No Iterations 2
DICPCG:  Solving for p_rgh, Initial residual = 0.010734, Final residual = 4.85153e-05, No Iterations 6
time step continuity errors : sum local = 0.000154813, global = -1.69936e-16, cumulative = 1.11873e-15
DILUPBiCG:  Solving for epsilon, Initial residual = 0.0054711, Final residual = 4.16666e-06, No Iterations 2
DILUPBiCG:  Solving for k, Initial residual = 0.0179619, Final residual = 6.14492e-05, No Iterations 2
DICPCG:  Solving for G, Initial residual = 0.00315135, Final residual = 0.000249768, No Iterations 11
Before T+T solve
BiCG:  Solving for T+T, Initial residual = 0.00112369, Final residual = 0.000110019, No Iterations 1
Tres = -0.570858
TsRes = -0.0499754
ExecutionTime = 0.18 s



Wall heat fluxes [W]
movingWall -0.185299 -1.66459e-15 0.187963 0.00266339
left 0.299326 -1.38744e-16 0.937297 1.23662
right -0.451481 -6.12898e-15 -1.36049 -1.81197
bottom -0.232266 0 0.235226 0.00296041
frontAndBack 0 0 0 0
sum -0.56972 -7.93232e-15 5.17655e-08 -0.56972


Wall heat fluxes [W]
topAndBottom 0 0 0 0
left 1.85192 0 0 1.85192
right -1.85822 0 0 -1.85822
frontAndBack 0 0 0 0
sum -0.006294 0 0 -0.006294

Time = 48

DILUPBiCG:  Solving for Ux, Initial residual = 0.00623436, Final residual = 5.6732e-05, No Iterations 1
DILUPBiCG:  Solving for Uy, Initial residual = 0.00937579, Final residual = 9.46901e-07, No Iterations 2
DICPCG:  Solving for p_rgh, Initial residual = 0.0107989, Final residual = 3.33487e-05, No Iterations 6
time step continuity errors : sum local = 9.70412e-05, global = -1.93229e-17, cumulative = 1.0994e-15
DILUPBiCG:  Solving for epsilon, Initial residual = 0.00525344, Final residual = 3.89486e-06, No Iterations 2
DILUPBiCG:  Solving for k, Initial residual = 0.0171228, Final residual = 5.63764e-05, No Iterations 2
DICPCG:  Solving for G, Initial residual = 0.00277109, Final residual = 0.000275868, No Iterations 11
Before T+T solve
BiCG:  Solving for T+T, Initial residual = 0.00111389, Final residual = 8.19704e-05, No Iterations 3
Tres = -0.560888
TsRes = -0.0398293
ExecutionTime = 0.18 s



Wall heat fluxes [W]
movingWall -0.183461 1.31866e-15 0.186141 0.00268061
left 0.303133 3.12174e-15 0.94079 1.24392
right -0.448847 -5.31455e-15 -1.35975 -1.80859
bottom -0.229843 0 0.232814 0.00297088
frontAndBack 0 0 0 0
sum -0.559017 -8.74158e-16 8.85127e-08 -0.559017


Wall heat fluxes [W]
topAndBottom 0 0 0 0
left 2.22115 0 0 2.22115
right -1.84772 0 0 -1.84772
frontAndBack 0 0 0 0
sum 0.373428 0 0 0.373428

Time = 49

DILUPBiCG:  Solving for Ux, Initial residual = 0.00620001, Final residual = 5.65329e-05, No Iterations 1
DILUPBiCG:  Solving for Uy, Initial residual = 0.00883595, Final residual = 9.16541e-07, No Iterations 2
DICPCG:  Solving for p_rgh, Initial residual = 0.0104742, Final residual = 9.552e-05, No Iterations 6
time step continuity errors : sum local = 0.000356488, global = 1.86215e-16, cumulative = 1.28562e-15
DILUPBiCG:  Solving for epsilon, Initial residual = 0.00502455, Final residual = 3.63941e-06, No Iterations 2
DILUPBiCG:  Solving for k, Initial residual = 0.0162801, Final residual = 5.21818e-05, No Iterations 2
DICPCG:  Solving for G, Initial residual = 0.00276913, Final residual = 0.000233771, No Iterations 11
Before T+T solve
BiCG:  Solving for T+T, Initial residual = 0.00112288, Final residual = 0.000100363, No Iterations 1
Tres = -0.550407
TsRes = -0.0431929
ExecutionTime = 0.19 s



Wall heat fluxes [W]
movingWall -0.181699 2.69735e-15 0.184265 0.002566
left 0.306853 6.24348e-16 0.944265 1.25112
right -0.446872 4.90312e-15 -1.35889 -1.80576
bottom -0.227555 0 0.23036 0.002805
frontAndBack 0 0 0 0
sum -0.549274 8.22482e-15 1.57536e-07 -0.549274


Wall heat fluxes [W]
topAndBottom 0 0 0 0
left 1.83001 0 0 1.83001
right -1.8468 0 0 -1.8468
frontAndBack 0 0 0 0
sum -0.0167945 0 0 -0.0167945

Time = 50

DILUPBiCG:  Solving for Ux, Initial residual = 0.00571913, Final residual = 5.62734e-05, No Iterations 1
DILUPBiCG:  Solving for Uy, Initial residual = 0.00874974, Final residual = 8.68657e-07, No Iterations 2
DICPCG:  Solving for p_rgh, Initial residual = 0.0105743, Final residual = 3.48751e-05, No Iterations 11
time step continuity errors : sum local = 8.96182e-05, global = -1.12298e-16, cumulative = 1.17332e-15
DILUPBiCG:  Solving for epsilon, Initial residual = 0.00478157, Final residual = 3.38399e-06, No Iterations 2
DILUPBiCG:  Solving for k, Initial residual = 0.0154537, Final residual = 4.84381e-05, No Iterations 2
DICPCG:  Solving for G, Initial residual = 0.00335096, Final residual = 0.000301857, No Iterations 12
Before T+T solve
BiCG:  Solving for T+T, Initial residual = 0.00107495, Final residual = 0.00010127, No Iterations 1
Tres = -0.541056
TsRes = -0.0451041
ExecutionTime = 0.19 s



Wall heat fluxes [W]
movingWall -0.180525 -2.697e-15 0.183437 0.00291184
left 0.310495 1.52618e-15 0.948547 1.25904
right -0.444006 -4.50958e-15 -1.36104 -1.80505
bottom -0.225892 0 0.229058 0.00316642
frontAndBack 0 0 0 0
sum -0.539928 -5.68039e-15 3.36851e-08 -0.539928


Wall heat fluxes [W]
topAndBottom 0 0 0 0
left 1.8273 0 0 1.8273
right -1.84578 0 0 -1.84578
frontAndBack 0 0 0 0
sum -0.0184767 0 0 -0.0184767

Time = 51

DILUPBiCG:  Solving for Ux, Initial residual = 0.00609564, Final residual = 5.39953e-05, No Iterations 1
DILUPBiCG:  Solving for Uy, Initial residual = 0.00810658, Final residual = 8.40601e-07, No Iterations 2
DICPCG:  Solving for p_rgh, Initial residual = 0.0109471, Final residual = 9.35396e-05, No Iterations 6
time step continuity errors : sum local = 0.000364154, global = -9.61018e-17, cumulative = 1.07722e-15
DILUPBiCG:  Solving for epsilon, Initial residual = 0.00453011, Final residual = 3.13652e-06, No Iterations 2
DILUPBiCG:  Solving for k, Initial residual = 0.0146302, Final residual = 4.53708e-05, No Iterations 2
DICPCG:  Solving for G, Initial residual = 0.00284381, Final residual = 0.000251975, No Iterations 11
Before T+T solve
BiCG:  Solving for T+T, Initial residual = 0.00106707, Final residual = 0.000106622, No Iterations 1
Tres = -0.530842
TsRes = -0.0478528
ExecutionTime = 0.19 s



Wall heat fluxes [W]
movingWall -0.178728 1.35786e-15 0.18117 0.00244214
left 0.314117 -6.24348e-16 0.952093 1.26621
right -0.441275 -4.48774e-15 -1.35954 -1.80082
bottom -0.223799 0 0.226282 0.00248293
frontAndBack 0 0 0 0
sum -0.529685 -3.75423e-15 5.27729e-08 -0.529685


Wall heat fluxes [W]
topAndBottom 0 0 0 0
left 1.83855 0 0 1.83855
right -1.84473 0 0 -1.84473
frontAndBack 0 0 0 0
sum -0.00618007 0 0 -0.00618007

Time = 52

DILUPBiCG:  Solving for Ux, Initial residual = 0.00600533, Final residual = 5.3817e-05, No Iterations 1
DILUPBiCG:  Solving for Uy, Initial residual = 0.00841284, Final residual = 1.11984e-06, No Iterations 2
DICPCG:  Solving for p_rgh, Initial residual = 0.0112478, Final residual = 4.54696e-05, No Iterations 11
time step continuity errors : sum local = 0.000120987, global = 3.3299e-16, cumulative = 1.41021e-15
DILUPBiCG:  Solving for epsilon, Initial residual = 0.00426757, Final residual = 2.90703e-06, No Iterations 2
DILUPBiCG:  Solving for k, Initial residual = 0.0138205, Final residual = 4.29406e-05, No Iterations 2
DICPCG:  Solving for G, Initial residual = 0.00248757, Final residual = 0.000245653, No Iterations 11
Before T+T solve
BiCG:  Solving for T+T, Initial residual = 0.00105681, Final residual = 8.24628e-05, No Iterations 3
Tres = -0.52168
TsRes = -0.0380885
ExecutionTime = 0.19 s



Wall heat fluxes [W]
movingWall -0.17694 3.35429e-16 0.179413 0.00247284
left 0.317658 5.61913e-15 0.955207 1.27286
right -0.438616 5.72296e-15 -1.35907 -1.79768
bottom -0.221947 0 0.224446 0.00249891
frontAndBack 0 0 0 0
sum -0.519845 1.16775e-14 1.07203e-07 -0.519845


Wall heat fluxes [W]
topAndBottom 0 0 0 0
left 2.18993 0 0 2.18993
right -1.8348 0 0 -1.8348
frontAndBack 0 0 0 0
sum 0.355134 0 0 0.355134

Time = 53

DILUPBiCG:  Solving for Ux, Initial residual = 0.0058934, Final residual = 5.20546e-05, No Iterations 1
DILUPBiCG:  Solving for Uy, Initial residual = 0.00797835, Final residual = 1.97137e-06, No Iterations 2
DICPCG:  Solving for p_rgh, Initial residual = 0.0113692, Final residual = 5.75476e-05, No Iterations 11
time step continuity errors : sum local = 0.000154818, global = -5.82333e-17, cumulative = 1.35197e-15
DILUPBiCG:  Solving for epsilon, Initial residual = 0.00400906, Final residual = 2.69432e-06, No Iterations 2
DILUPBiCG:  Solving for k, Initial residual = 0.0130335, Final residual = 4.15111e-05, No Iterations 2
DICPCG:  Solving for G, Initial residual = 0.00247205, Final residual = 0.000177597, No Iterations 11
Before T+T solve
BiCG:  Solving for T+T, Initial residual = 0.00106796, Final residual = 9.77954e-05, No Iterations 1
Tres = -0.511989
TsRes = -0.041162
ExecutionTime = 0.2 s



Wall heat fluxes [W]
movingWall -0.175207 -9.75368e-16 0.17758 0.00237367
left 0.321229 -1.7343e-15 0.958309 1.27954
right -0.436631 8.22143e-16 -1.35845 -1.79508
bottom -0.220261 0 0.222563 0.00230203
frontAndBack 0 0 0 0
sum -0.510869 -1.88753e-15 3.70633e-08 -0.510869


Wall heat fluxes [W]
topAndBottom 0 0 0 0
left 1.81744 0 0 1.81744
right -1.83393 0 0 -1.83393
frontAndBack 0 0 0 0
sum -0.0164906 0 0 -0.0164906

Time = 54

DILUPBiCG:  Solving for Ux, Initial residual = 0.00544351, Final residual = 5.03545e-05, No Iterations 1
DILUPBiCG:  Solving for Uy, Initial residual = 0.00789398, Final residual = 7.76407e-06, No Iterations 2
DICPCG:  Solving for p_rgh, Initial residual = 0.0118717, Final residual = 0.000115424, No Iterations 6
time step continuity errors : sum local = 0.00044805, global = -2.01181e-17, cumulative = 1.33186e-15
DILUPBiCG:  Solving for epsilon, Initial residual = 0.00384715, Final residual = 2.4976e-06, No Iterations 2
DILUPBiCG:  Solving for k, Initial residual = 0.0122534, Final residual = 3.90124e-05, No Iterations 2
DICPCG:  Solving for G, Initial residual = 0.00300172, Final residual = 0.000278075, No Iterations 12
Before T+T solve
BiCG:  Solving for T+T, Initial residual = 0.00101923, Final residual = 9.83481e-05, No Iterations 1
Tres = -0.503283
TsRes = -0.0427292
ExecutionTime = 0.2 s



Wall heat fluxes [W]
movingWall -0.174004 1.02124e-15 0.17671 0.00270633
left 0.324867 -2.42802e-15 0.962163 1.28703
right -0.433856 1.23101e-15 -1.36071 -1.79457
bottom -0.219196 0 0.221836 0.00263975
frontAndBack 0 0 0 0
sum -0.502189 -1.75763e-16 3.68618e-09 -0.502189


Wall heat fluxes [W]
topAndBottom 0 0 0 0
left 1.81482 0 0 1.81482
right -1.83296 0 0 -1.83296
frontAndBack 0 0 0 0
sum -0.0181356 0 0 -0.0181356

Time = 55

DILUPBiCG:  Solving for Ux, Initial residual = 0.00591411, Final residual = 5.25614e-05, No Iterations 1
DILUPBiCG:  Solving for Uy, Initial residual = 0.00728274, Final residual = 2.64157e-06, No Iterations 2
DICPCG:  Solving for p_rgh, Initial residual = 0.0133114, Final residual = 5.77955e-05, No Iterations 11
time step continuity errors : sum local = 0.000154196, global = 3.15255e-16, cumulative = 1.64711e-15
DILUPBiCG:  Solving for epsilon, Initial residual = 0.00362032, Final residual = 2.26893e-06, No Iterations 2
DILUPBiCG:  Solving for k, Initial residual = 0.0115353, Final residual = 3.6202e-05, No Iterations 2
DICPCG:  Solving for G, Initial residual = 0.00252227, Final residual = 0.000236186, No Iterations 11
Before T+T solve
BiCG:  Solving for T+T, Initial residual = 0.00100964, Final residual = 7.4058e-05, No Iterations 3
Tres = -0.494382
TsRes = -0.0335914
ExecutionTime = 0.2 s



Wall heat fluxes [W]
movingWall -0.17215 2.39067e-15 0.174452 0.00230201
left 0.328455 3.88483e-15 0.965305 1.29376
right -0.431333 5.32586e-15 -1.35946 -1.7908
bottom -0.217654 0 0.219708 0.00205459
frontAndBack 0 0 0 0
sum -0.492681 1.16014e-14 -5.43908e-09 -0.492681


Wall heat fluxes [W]
topAndBottom 0 0 0 0
left 2.13805 0 0 2.13805
right -1.82324 0 0 -1.82324
frontAndBack 0 0 0 0
sum 0.314812 0 0 0.314812

Time = 56

DILUPBiCG:  Solving for Ux, Initial residual = 0.00571061, Final residual = 5.02772e-05, No Iterations 1
DILUPBiCG:  Solving for Uy, Initial residual = 0.00754578, Final residual = 2.12394e-06, No Iterations 2
DICPCG:  Solving for p_rgh, Initial residual = 0.0141684, Final residual = 6.11926e-05, No Iterations 11
time step continuity errors : sum local = 0.000164177, global = 2.01435e-16, cumulative = 1.84855e-15
DILUPBiCG:  Solving for epsilon, Initial residual = 0.00331585, Final residual = 2.0605e-06, No Iterations 2
DILUPBiCG:  Solving for k, Initial residual = 0.0107549, Final residual = 3.43819e-05, No Iterations 2
DICPCG:  Solving for G, Initial residual = 0.00222788, Final residual = 0.00014466, No Iterations 12
Before T+T solve
BiCG:  Solving for T+T, Initial residual = 0.00101669, Final residual = 9.02234e-05, No Iterations 1
Tres = -0.485143
TsRes = -0.036382
ExecutionTime = 0.21 s



Wall heat fluxes [W]
movingWall -0.170404 -1.01396e-15 0.172641 0.0022367
left 0.332096 2.15053e-15 0.968086 1.30018
right -0.429396 6.14472e-15 -1.35912 -1.78851
bottom -0.216377 0 0.218392 0.00201534
frontAndBack 0 0 0 0
sum -0.484081 7.28129e-15 1.05531e-07 -0.484081


Wall heat fluxes [W]
topAndBottom 0 0 0 0
left 1.80774 0 0 1.80774
right -1.82248 0 0 -1.82248
frontAndBack 0 0 0 0
sum -0.0147351 0 0 -0.0147351

Time = 57

DILUPBiCG:  Solving for Ux, Initial residual = 0.00530128, Final residual = 4.90463e-05, No Iterations 1
DILUPBiCG:  Solving for Uy, Initial residual = 0.00743233, Final residual = 4.60028e-06, No Iterations 2
DICPCG:  Solving for p_rgh, Initial residual = 0.0148369, Final residual = 9.90191e-05, No Iterations 6
time step continuity errors : sum local = 0.000406369, global = -1.99582e-16, cumulative = 1.64896e-15
DILUPBiCG:  Solving for epsilon, Initial residual = 0.00301743, Final residual = 1.86128e-06, No Iterations 2
DILUPBiCG:  Solving for k, Initial residual = 0.00998168, Final residual = 3.39095e-05, No Iterations 2
DICPCG:  Solving for G, Initial residual = 0.00269634, Final residual = 0.000243999, No Iterations 12
Before T+T solve
BiCG:  Solving for T+T, Initial residual = 0.000971745, Final residual = 9.1097e-05, No Iterations 1
Tres = -0.476727
TsRes = -0.0379068
ExecutionTime = 0.21 s



Wall heat fluxes [W]
movingWall -0.169137 -2.71197e-15 0.171673 0.00253672
left 0.335815 -1.66493e-15 0.971571 1.30739
right -0.42679 -2.46101e-15 -1.36111 -1.7879
bottom -0.21558 0 0.217866 0.00228592
frontAndBack 0 0 0 0
sum -0.475693 -6.83791e-15 3.32592e-08 -0.475693


Wall heat fluxes [W]
topAndBottom 0 0 0 0
left 1.80613 0 0 1.80613
right -1.82165 0 0 -1.82165
frontAndBack 0 0 0 0
sum -0.0155173 0 0 -0.0155173

Time = 58

DILUPBiCG:  Solving for Ux, Initial residual = 0.00564251, Final residual = 5.09636e-05, No Iterations 1
DILUPBiCG:  Solving for Uy, Initial residual = 0.00678522, Final residual = 1.95656e-05, No Iterations 2
DICPCG:  Solving for p_rgh, Initial residual = 0.015267, Final residual = 5.49591e-05, No Iterations 11
time step continuity errors : sum local = 0.00014497, global = 1.06144e-16, cumulative = 1.75511e-15
DILUPBiCG:  Solving for epsilon, Initial residual = 0.00279844, Final residual = 1.69163e-06, No Iterations 2
DILUPBiCG:  Solving for k, Initial residual = 0.00928679, Final residual = 3.4573e-05, No Iterations 2
DICPCG:  Solving for G, Initial residual = 0.0022766, Final residual = 0.000203285, No Iterations 11
Before T+T solve
BiCG:  Solving for T+T, Initial residual = 0.000962018, Final residual = 9.54665e-05, No Iterations 1
Tres = -0.467599
TsRes = -0.0400688
ExecutionTime = 0.21 s



Wall heat fluxes [W]
movingWall -0.167329 3.35475e-15 0.169462 0.0021329
left 0.339515 -8.32464e-16 0.97442 1.31393
right -0.424371 4.1032e-15 -1.36003 -1.7844
bottom -0.214381 0 0.216152 0.00177161
frontAndBack 0 0 0 0
sum -0.466566 6.62549e-15 -4.62408e-08 -0.466566


Wall heat fluxes [W]
topAndBottom 0 0 0 0
left 1.81568 0 0 1.81568
right -1.82079 0 0 -1.82079
frontAndBack 0 0 0 0
sum -0.00510889 0 0 -0.00510889

Time = 59

DILUPBiCG:  Solving for Ux, Initial residual = 0.00544242, Final residual = 4.8825e-05, No Iterations 1
DILUPBiCG:  Solving for Uy, Initial residual = 0.00726697, Final residual = 2.36813e-06, No Iterations 2
DICPCG:  Solving for p_rgh, Initial residual = 0.015327, Final residual = 0.000122322, No Iterations 6
time step continuity errors : sum local = 0.000492084, global = 1.04555e-16, cumulative = 1.85966e-15
DILUPBiCG:  Solving for epsilon, Initial residual = 0.00266619, Final residual = 1.56516e-06, No Iterations 2
[...]
DILUPBiCG:  Solving for k, Initial residual = 4.84284e-11, Final residual = 8.35088e-15, No Iterations 3
DICPCG:  Solving for G, Initial residual = 1.14744e-11, Final residual = 6.32333e-13, No Iterations 11
Before T+T solve
BiCG:  Solving for T+T, Initial residual = 5.14066e-12, Final residual = 5.08501e-13, No Iterations 2
Tres = -2.09543e-09
TsRes = -1.60631e-10
ExecutionTime = 2.39 s



Wall heat fluxes [W]
movingWall -0.0645481 -2.66777e-16 0.0645481 1.19138e-11
left 0.54176 -3.32986e-15 1.13197 1.67373
right -0.320741 -2.48996e-15 -1.35298 -1.67373
bottom -0.156471 0 0.156471 8.71017e-12
frontAndBack 0 0 0 0
sum -2.09007e-09 -6.08659e-15 5.7121e-13 -2.0895e-09


Wall heat fluxes [W]
topAndBottom 0 0 0 0
left 1.67373 0 0 1.67373
right -1.67373 0 0 -1.67373
frontAndBack 0 0 0 0
sum 3.46368e-10 0 0 3.46368e-10

Time = 987

DILUPBiCG:  Solving for Ux, Initial residual = 2.20092e-11, Final residual = 4.77074e-15, No Iterations 2
DILUPBiCG:  Solving for Uy, Initial residual = 2.85674e-11, Final residual = 6.10958e-15, No Iterations 2
DICPCG:  Solving for p_rgh, Initial residual = 3.9631e-11, Final residual = 2.45691e-13, No Iterations 10
time step continuity errors : sum local = 7.58739e-13, global = -4.18223e-17, cumulative = 3.53175e-15
DILUPBiCG:  Solving for epsilon, Initial residual = 2.34134e-11, Final residual = 2.25527e-15, No Iterations 3
DILUPBiCG:  Solving for k, Initial residual = 4.72237e-11, Final residual = 8.18606e-15, No Iterations 3
DICPCG:  Solving for G, Initial residual = 1.04438e-11, Final residual = 7.46095e-13, No Iterations 11
Before T+T solve
BiCG:  Solving for T+T, Initial residual = 5.16214e-12, Final residual = 5.07318e-13, No Iterations 3
Tres = -2.05294e-09
TsRes = -1.31474e-10
ExecutionTime = 2.39 s



Wall heat fluxes [W]
movingWall -0.0645481 -1.74903e-15 0.0645481 1.19877e-11
left 0.54176 3.32986e-15 1.13197 1.67373
right -0.320741 -5.80014e-15 -1.35298 -1.67373
bottom -0.156471 0 0.156471 8.48907e-12
frontAndBack 0 0 0 0
sum -2.04631e-09 -4.21932e-15 3.24074e-13 -2.046e-09


Wall heat fluxes [W]
topAndBottom 0 0 0 0
left 1.67373 0 0 1.67373
right -1.67373 0 0 -1.67373
frontAndBack 0 0 0 0
sum 1.04468e-09 0 0 1.04468e-09

Time = 988

DILUPBiCG:  Solving for Ux, Initial residual = 2.11477e-11, Final residual = 4.71073e-15, No Iterations 2
DILUPBiCG:  Solving for Uy, Initial residual = 2.76492e-11, Final residual = 6.65823e-15, No Iterations 2
DICPCG:  Solving for p_rgh, Initial residual = 3.72172e-11, Final residual = 2.19203e-13, No Iterations 10
time step continuity errors : sum local = 6.77992e-13, global = -1.95876e-17, cumulative = 3.51217e-15
DILUPBiCG:  Solving for epsilon, Initial residual = 2.29444e-11, Final residual = 2.21185e-15, No Iterations 3
DILUPBiCG:  Solving for k, Initial residual = 4.62224e-11, Final residual = 8.01943e-15, No Iterations 3
DICPCG:  Solving for G, Initial residual = 1.08643e-11, Final residual = 8.82977e-13, No Iterations 12
Before T+T solve
BiCG:  Solving for T+T, Initial residual = 5.13573e-12, Final residual = 4.7704e-13, No Iterations 1
Tres = -2.00968e-09
TsRes = -1.43871e-10
ExecutionTime = 2.39 s



Wall heat fluxes [W]
movingWall -0.0645481 6.40183e-16 0.0645481 1.21189e-11
left 0.54176 1.94242e-15 1.13197 1.67373
right -0.320741 -6.62964e-15 -1.35298 -1.67373
bottom -0.156471 0 0.156471 8.85259e-12
frontAndBack 0 0 0 0
sum -2.00488e-09 -4.04704e-15 7.5287e-13 -2.00414e-09


Wall heat fluxes [W]
topAndBottom 0 0 0 0
left 1.67373 0 0 1.67373
right -1.67373 0 0 -1.67373
frontAndBack 0 0 0 0
sum -4.36917e-11 0 0 -4.36917e-11

Time = 989

DILUPBiCG:  Solving for Ux, Initial residual = 1.98585e-11, Final residual = 4.52207e-15, No Iterations 2
DILUPBiCG:  Solving for Uy, Initial residual = 2.69486e-11, Final residual = 7.5182e-15, No Iterations 2
DICPCG:  Solving for p_rgh, Initial residual = 3.23398e-11, Final residual = 1.57948e-13, No Iterations 10
time step continuity errors : sum local = 4.8703e-13, global = 1.73112e-16, cumulative = 3.68528e-15
DILUPBiCG:  Solving for epsilon, Initial residual = 2.25742e-11, Final residual = 2.14595e-15, No Iterations 3
DILUPBiCG:  Solving for k, Initial residual = 4.54521e-11, Final residual = 7.84137e-15, No Iterations 3
DICPCG:  Solving for G, Initial residual = 1.27516e-11, Final residual = 1.09722e-12, No Iterations 12
Before T+T solve
BiCG:  Solving for T+T, Initial residual = 4.80208e-12, Final residual = 4.79327e-13, No Iterations 1
Tres = -1.96852e-09
TsRes = -1.50801e-10
ExecutionTime = 2.4 s



Wall heat fluxes [W]
movingWall -0.0645481 -5.08763e-16 0.0645481 1.26331e-11
left 0.54176 0 1.13197 1.67373
right -0.320741 8.29257e-15 -1.35298 -1.67373
bottom -0.156471 0 0.156471 9.49793e-12
frontAndBack 0 0 0 0
sum -1.96389e-09 7.7838e-15 5.27439e-13 -1.96336e-09


Wall heat fluxes [W]
topAndBottom 0 0 0 0
left 1.67373 0 0 1.67373
right -1.67373 0 0 -1.67373
frontAndBack 0 0 0 0
sum -5.9176e-11 0 0 -5.9176e-11

Time = 990

DILUPBiCG:  Solving for Ux, Initial residual = 2.06687e-11, Final residual = 4.4811e-15, No Iterations 2
DILUPBiCG:  Solving for Uy, Initial residual = 2.52573e-11, Final residual = 7.8366e-15, No Iterations 2
DICPCG:  Solving for p_rgh, Initial residual = 3.11205e-11, Final residual = 1.70357e-13, No Iterations 10
time step continuity errors : sum local = 5.28399e-13, global = -4.19811e-16, cumulative = 3.26547e-15
DILUPBiCG:  Solving for epsilon, Initial residual = 2.20709e-11, Final residual = 2.09434e-15, No Iterations 3
DILUPBiCG:  Solving for k, Initial residual = 4.45425e-11, Final residual = 7.68095e-15, No Iterations 3
DICPCG:  Solving for G, Initial residual = 1.08301e-11, Final residual = 6.0057e-13, No Iterations 11
Before T+T solve
BiCG:  Solving for T+T, Initial residual = 4.72749e-12, Final residual = 4.67458e-13, No Iterations 2
Tres = -1.92717e-09
TsRes = -1.47884e-10
ExecutionTime = 2.4 s



Wall heat fluxes [W]
movingWall -0.0645481 -1.50532e-15 0.0645481 1.08821e-11
left 0.54176 -1.22095e-14 1.13197 1.67373
right -0.320741 -1.24323e-15 -1.35298 -1.67373
bottom -0.156471 0 0.156471 7.93277e-12
frontAndBack 0 0 0 0
sum -1.92224e-09 -1.4958e-14 6.88061e-14 -1.92218e-09


Wall heat fluxes [W]
topAndBottom 0 0 0 0
left 1.67373 0 0 1.67373
right -1.67373 0 0 -1.67373
frontAndBack 0 0 0 0
sum 3.1831e-10 0 0 3.1831e-10

Time = 991

DILUPBiCG:  Solving for Ux, Initial residual = 2.025e-11, Final residual = 4.38883e-15, No Iterations 2
DILUPBiCG:  Solving for Uy, Initial residual = 2.63638e-11, Final residual = 5.58831e-15, No Iterations 2
DICPCG:  Solving for p_rgh, Initial residual = 3.64878e-11, Final residual = 2.25771e-13, No Iterations 10
time step continuity errors : sum local = 6.98118e-13, global = -1.14349e-16, cumulative = 3.15112e-15
DILUPBiCG:  Solving for epsilon, Initial residual = 2.15349e-11, Final residual = 2.07415e-15, No Iterations 3
DILUPBiCG:  Solving for k, Initial residual = 4.34357e-11, Final residual = 7.52922e-15, No Iterations 3
DICPCG:  Solving for G, Initial residual = 9.6165e-12, Final residual = 7.16937e-13, No Iterations 11
Before T+T solve
BiCG:  Solving for T+T, Initial residual = 4.74837e-12, Final residual = 4.66628e-13, No Iterations 3
Tres = -1.88818e-09
TsRes = -1.20876e-10
ExecutionTime = 2.4 s



Wall heat fluxes [W]
movingWall -0.0645481 -8.19677e-16 0.0645481 1.10625e-11
left 0.54176 -2.49739e-15 1.13197 1.67373
right -0.320741 8.2759e-16 -1.35298 -1.67373
bottom -0.156471 0 0.156471 7.84983e-12
frontAndBack 0 0 0 0
sum -1.88208e-09 -2.48948e-15 2.48079e-13 -1.88184e-09


Wall heat fluxes [W]
topAndBottom 0 0 0 0
left 1.67373 0 0 1.67373
right -1.67373 0 0 -1.67373
frontAndBack 0 0 0 0
sum 9.62698e-10 0 0 9.62698e-10

Time = 992

DILUPBiCG:  Solving for Ux, Initial residual = 1.94466e-11, Final residual = 4.33299e-15, No Iterations 2
DILUPBiCG:  Solving for Uy, Initial residual = 2.53796e-11, Final residual = 6.15293e-15, No Iterations 2
DICPCG:  Solving for p_rgh, Initial residual = 3.42218e-11, Final residual = 2.02086e-13, No Iterations 10
time step continuity errors : sum local = 6.25221e-13, global = -2.06464e-17, cumulative = 3.13047e-15
DILUPBiCG:  Solving for epsilon, Initial residual = 2.11042e-11, Final residual = 2.03434e-15, No Iterations 3
DILUPBiCG:  Solving for k, Initial residual = 4.2515e-11, Final residual = 7.37591e-15, No Iterations 3
DICPCG:  Solving for G, Initial residual = 1.03834e-11, Final residual = 8.0955e-13, No Iterations 12
Before T+T solve
BiCG:  Solving for T+T, Initial residual = 4.72382e-12, Final residual = 4.39279e-13, No Iterations 1
Tres = -1.84834e-09
TsRes = -1.32293e-10
ExecutionTime = 2.4 s



Wall heat fluxes [W]
movingWall -0.0645481 -2.0966e-15 0.0645481 1.11222e-11
left 0.54176 1.94242e-15 1.13197 1.67373
right -0.320741 -4.11885e-16 -1.35298 -1.67373
bottom -0.156471 0 0.156471 8.11576e-12
frontAndBack 0 0 0 0
sum -1.84394e-09 -5.66067e-16 4.37234e-13 -1.8435e-09


Wall heat fluxes [W]
topAndBottom 0 0 0 0
left 1.67373 0 0 1.67373
right -1.67373 0 0 -1.67373
frontAndBack 0 0 0 0
sum -3.99967e-11 0 0 -3.99967e-11

Time = 993

DILUPBiCG:  Solving for Ux, Initial residual = 1.8264e-11, Final residual = 4.15924e-15, No Iterations 2
DILUPBiCG:  Solving for Uy, Initial residual = 2.48094e-11, Final residual = 6.89967e-15, No Iterations 2
DICPCG:  Solving for p_rgh, Initial residual = 2.97528e-11, Final residual = 1.4533e-13, No Iterations 10
time step continuity errors : sum local = 4.48149e-13, global = -5.98217e-17, cumulative = 3.07065e-15
DILUPBiCG:  Solving for epsilon, Initial residual = 2.07635e-11, Final residual = 1.97374e-15, No Iterations 3
DILUPBiCG:  Solving for k, Initial residual = 4.18062e-11, Final residual = 7.21213e-15, No Iterations 3
DICPCG:  Solving for G, Initial residual = 1.15428e-11, Final residual = 1.01776e-12, No Iterations 12
Before T+T solve
BiCG:  Solving for T+T, Initial residual = 4.41694e-12, Final residual = 4.40708e-13, No Iterations 1
Tres = -1.81056e-09
TsRes = -1.38598e-10
ExecutionTime = 2.41 s



Wall heat fluxes [W]
movingWall -0.0645481 5.32875e-16 0.0645481 1.16437e-11
left 0.54176 -3.05237e-15 1.13197 1.67373
right -0.320741 1.66417e-15 -1.35298 -1.67373
bottom -0.156471 0 0.156471 8.76296e-12
frontAndBack 0 0 0 0
sum -1.80629e-09 -8.55322e-16 4.28796e-13 -1.80586e-09


Wall heat fluxes [W]
topAndBottom 0 0 0 0
left 1.67373 0 0 1.67373
right -1.67373 0 0 -1.67373
frontAndBack 0 0 0 0
sum -5.42646e-11 0 0 -5.42646e-11

Time = 994

DILUPBiCG:  Solving for Ux, Initial residual = 1.90087e-11, Final residual = 4.12116e-15, No Iterations 2
DILUPBiCG:  Solving for Uy, Initial residual = 2.32012e-11, Final residual = 7.23789e-15, No Iterations 2
DICPCG:  Solving for p_rgh, Initial residual = 2.8615e-11, Final residual = 1.56671e-13, No Iterations 10
time step continuity errors : sum local = 4.85998e-13, global = 1.45584e-16, cumulative = 3.21623e-15
DILUPBiCG:  Solving for epsilon, Initial residual = 2.03004e-11, Final residual = 1.92636e-15, No Iterations 3
DILUPBiCG:  Solving for k, Initial residual = 4.09691e-11, Final residual = 7.06464e-15, No Iterations 3
DICPCG:  Solving for G, Initial residual = 9.83301e-12, Final residual = 5.91938e-13, No Iterations 11
Before T+T solve
BiCG:  Solving for T+T, Initial residual = 4.3478e-12, Final residual = 4.29209e-13, No Iterations 2
Tres = -1.77249e-09
TsRes = -1.35844e-10
ExecutionTime = 2.41 s



Wall heat fluxes [W]
movingWall -0.0645481 -4.69354e-16 0.0645481 1.00101e-11
left 0.54176 5.82725e-15 1.13197 1.67373
right -0.320741 8.29125e-16 -1.35298 -1.67373
bottom -0.156471 0 0.156471 7.29455e-12
frontAndBack 0 0 0 0
sum -1.76798e-09 6.18702e-15 -8.99281e-15 -1.76798e-09


Wall heat fluxes [W]
topAndBottom 0 0 0 0
left 1.67373 0 0 1.67373
right -1.67373 0 0 -1.67373
frontAndBack 0 0 0 0
sum 2.92083e-10 0 0 2.92083e-10

Time = 995

DILUPBiCG:  Solving for Ux, Initial residual = 1.86245e-11, Final residual = 4.03657e-15, No Iterations 2
DILUPBiCG:  Solving for Uy, Initial residual = 2.42477e-11, Final residual = 5.13977e-15, No Iterations 2
DICPCG:  Solving for p_rgh, Initial residual = 3.35544e-11, Final residual = 2.07511e-13, No Iterations 10
time step continuity errors : sum local = 6.41135e-13, global = 2.16523e-16, cumulative = 3.43276e-15
DILUPBiCG:  Solving for epsilon, Initial residual = 1.98073e-11, Final residual = 1.90775e-15, No Iterations 3
DILUPBiCG:  Solving for k, Initial residual = 3.99507e-11, Final residual = 6.92503e-15, No Iterations 3
DICPCG:  Solving for G, Initial residual = 8.78743e-12, Final residual = 6.6752e-13, No Iterations 11
Before T+T solve
BiCG:  Solving for T+T, Initial residual = 4.36639e-12, Final residual = 4.29165e-13, No Iterations 3
Tres = -1.73666e-09
TsRes = -1.11282e-10
ExecutionTime = 2.41 s



Wall heat fluxes [W]
movingWall -0.0645481 7.27933e-16 0.0645481 1.01836e-11
left 0.54176 7.49218e-15 1.13197 1.67373
right -0.320741 -1.65711e-15 -1.35298 -1.67373
bottom -0.156471 0 0.156471 7.22869e-12
frontAndBack 0 0 0 0
sum -1.73106e-09 6.563e-15 2.12413e-13 -1.73084e-09


Wall heat fluxes [W]
topAndBottom 0 0 0 0
left 1.67373 0 0 1.67373
right -1.67373 0 0 -1.67373
frontAndBack 0 0 0 0
sum 8.84175e-10 0 0 8.84175e-10

Time = 996

DILUPBiCG:  Solving for Ux, Initial residual = 1.78873e-11, Final residual = 3.98515e-15, No Iterations 2
DILUPBiCG:  Solving for Uy, Initial residual = 2.33346e-11, Final residual = 5.66328e-15, No Iterations 2
DICPCG:  Solving for p_rgh, Initial residual = 3.14717e-11, Final residual = 1.86021e-13, No Iterations 10
time step continuity errors : sum local = 5.75041e-13, global = -4.39398e-17, cumulative = 3.38882e-15
DILUPBiCG:  Solving for epsilon, Initial residual = 1.94109e-11, Final residual = 1.87113e-15, No Iterations 3
DILUPBiCG:  Solving for k, Initial residual = 3.91037e-11, Final residual = 6.78403e-15, No Iterations 3
DICPCG:  Solving for G, Initial residual = 9.52035e-12, Final residual = 7.35237e-13, No Iterations 12
Before T+T solve
BiCG:  Solving for T+T, Initial residual = 4.3452e-12, Final residual = 4.04309e-13, No Iterations 1
Tres = -1.70008e-09
TsRes = -1.21837e-10
ExecutionTime = 2.41 s



Wall heat fluxes [W]
movingWall -0.0645481 -1.80842e-15 0.0645481 1.0253e-11
left 0.54176 1.66493e-15 1.13197 1.67373
right -0.320741 -8.31348e-16 -1.35298 -1.67373
bottom -0.156471 0 0.156471 7.48801e-12
frontAndBack 0 0 0 0
sum -1.69603e-09 -9.74841e-16 5.74818e-13 -1.69545e-09


Wall heat fluxes [W]
topAndBottom 0 0 0 0
left 1.67373 0 0 1.67373
right -1.67373 0 0 -1.67373
frontAndBack 0 0 0 0
sum -3.70639e-11 0 0 -3.70639e-11

Time = 997

DILUPBiCG:  Solving for Ux, Initial residual = 1.67967e-11, Final residual = 3.82559e-15, No Iterations 2
DILUPBiCG:  Solving for Uy, Initial residual = 2.27913e-11, Final residual = 6.36292e-15, No Iterations 2
DICPCG:  Solving for p_rgh, Initial residual = 2.73573e-11, Final residual = 1.33687e-13, No Iterations 10
time step continuity errors : sum local = 4.11981e-13, global = -2.46698e-16, cumulative = 3.14212e-15
DILUPBiCG:  Solving for epsilon, Initial residual = 1.90972e-11, Final residual = 1.81545e-15, No Iterations 3
DILUPBiCG:  Solving for k, Initial residual = 3.84513e-11, Final residual = 6.63343e-15, No Iterations 3
DICPCG:  Solving for G, Initial residual = 1.07711e-11, Final residual = 9.3187e-13, No Iterations 12
Before T+T solve
BiCG:  Solving for T+T, Initial residual = 4.06372e-12, Final residual = 4.06219e-13, No Iterations 1
Tres = -1.66544e-09
TsRes = -1.27727e-10
ExecutionTime = 2.41 s



Wall heat fluxes [W]
movingWall -0.0645481 -1.39346e-15 0.0645481 1.07543e-11
left 0.54176 -9.85082e-15 1.13197 1.67373
right -0.320741 4.14574e-15 -1.35298 -1.67373
bottom -0.156471 0 0.156471 8.11232e-12
frontAndBack 0 0 0 0
sum -1.6615e-09 -7.09855e-15 9.47548e-13 -1.66056e-09


Wall heat fluxes [W]
topAndBottom 0 0 0 0
left 1.67373 0 0 1.67373
right -1.67373 0 0 -1.67373
frontAndBack 0 0 0 0
sum -4.96825e-11 0 0 -4.96825e-11

Time = 998

DILUPBiCG:  Solving for Ux, Initial residual = 1.74794e-11, Final residual = 3.78991e-15, No Iterations 2
DILUPBiCG:  Solving for Uy, Initial residual = 2.12865e-11, Final residual = 6.6979e-15, No Iterations 2
DICPCG:  Solving for p_rgh, Initial residual = 2.62969e-11, Final residual = 1.44083e-13, No Iterations 10
time step continuity errors : sum local = 4.46563e-13, global = 7.94093e-18, cumulative = 3.15006e-15
DILUPBiCG:  Solving for epsilon, Initial residual = 1.86712e-11, Final residual = 1.77193e-15, No Iterations 3
DILUPBiCG:  Solving for k, Initial residual = 3.76809e-11, Final residual = 6.49785e-15, No Iterations 3
DICPCG:  Solving for G, Initial residual = 9.15551e-12, Final residual = 4.93172e-13, No Iterations 11
Before T+T solve
BiCG:  Solving for T+T, Initial residual = 3.99935e-12, Final residual = 3.95582e-13, No Iterations 2
Tres = -1.63039e-09
TsRes = -1.25282e-10
ExecutionTime = 2.42 s



Wall heat fluxes [W]
movingWall -0.0645481 2.38786e-16 0.0645481 9.19706e-12
left 0.54176 -1.38744e-15 1.13197 1.67373
right -0.320741 -1.79806e-18 -1.35298 -1.67373
bottom -0.156471 0 0.156471 6.69553e-12
frontAndBack 0 0 0 0
sum -1.62623e-09 -1.15045e-15 3.80501e-13 -1.62585e-09


Wall heat fluxes [W]
topAndBottom 0 0 0 0
left 1.67373 0 0 1.67373
right -1.67373 0 0 -1.67373
frontAndBack 0 0 0 0
sum 2.69107e-10 0 0 2.69107e-10

Time = 999

DILUPBiCG:  Solving for Ux, Initial residual = 1.71319e-11, Final residual = 3.71254e-15, No Iterations 2
DILUPBiCG:  Solving for Uy, Initial residual = 2.23224e-11, Final residual = 4.71928e-15, No Iterations 2
DICPCG:  Solving for p_rgh, Initial residual = 3.08693e-11, Final residual = 1.90954e-13, No Iterations 10
time step continuity errors : sum local = 5.8982e-13, global = 4.12929e-17, cumulative = 3.19135e-15
DILUPBiCG:  Solving for epsilon, Initial residual = 1.82172e-11, Final residual = 1.75476e-15, No Iterations 3
DILUPBiCG:  Solving for k, Initial residual = 3.6744e-11, Final residual = 6.36948e-15, No Iterations 3
DICPCG:  Solving for G, Initial residual = 8.15434e-12, Final residual = 5.64675e-13, No Iterations 11
Before T+T solve
BiCG:  Solving for T+T, Initial residual = 4.01778e-12, Final residual = 3.94721e-13, No Iterations 3
Tres = -1.59731e-09
TsRes = -1.02168e-10
ExecutionTime = 2.42 s



Wall heat fluxes [W]
movingWall -0.0645481 -2.45755e-15 0.0645481 9.31157e-12
left 0.54176 4.85604e-15 1.13197 1.67373
right -0.320741 -1.65897e-15 -1.35298 -1.67373
bottom -0.156471 0 0.156471 6.59398e-12
frontAndBack 0 0 0 0
sum -1.59216e-09 7.39514e-16 1.49186e-13 -1.59201e-09


Wall heat fluxes [W]
topAndBottom 0 0 0 0
left 1.67373 0 0 1.67373
right -1.67373 0 0 -1.67373
frontAndBack 0 0 0 0
sum 8.13871e-10 0 0 8.13871e-10

Time = 1000

DILUPBiCG:  Solving for Ux, Initial residual = 1.64565e-11, Final residual = 3.66575e-15, No Iterations 2
DILUPBiCG:  Solving for Uy, Initial residual = 2.15272e-11, Final residual = 5.17481e-15, No Iterations 2
DICPCG:  Solving for p_rgh, Initial residual = 2.89788e-11, Final residual = 1.70464e-13, No Iterations 10
time step continuity errors : sum local = 5.27313e-13, global = 2.06994e-16, cumulative = 3.39835e-15
DILUPBiCG:  Solving for epsilon, Initial residual = 1.78531e-11, Final residual = 1.72092e-15, No Iterations 3
DILUPBiCG:  Solving for k, Initial residual = 3.59658e-11, Final residual = 6.23977e-15, No Iterations 3
DICPCG:  Solving for G, Initial residual = 8.59286e-12, Final residual = 6.7976e-13, No Iterations 12
Before T+T solve
BiCG:  Solving for T+T, Initial residual = 3.9955e-12, Final residual = 3.71412e-13, No Iterations 1
Tres = -1.56357e-09
TsRes = -1.1197e-10
ExecutionTime = 2.42 s



Wall heat fluxes [W]
movingWall -0.0645481 2.4442e-16 0.0645481 9.39163e-12
left 0.54176 3.88483e-15 1.13197 1.67373
right -0.320741 4.14885e-15 -1.35298 -1.67373
bottom -0.156471 0 0.156471 6.84408e-12
frontAndBack 0 0 0 0
sum -1.55985e-09 8.2781e-15 1.98563e-13 -1.55964e-09


Wall heat fluxes [W]
topAndBottom 0 0 0 0
left 1.67373 0 0 1.67373
right -1.67373 0 0 -1.67373
frontAndBack 0 0 0 0
sum -3.37326e-11 0 0 -3.37326e-11

End

