/*---------------------------------------------------------------------------*\
| =========                 |                                                 |
| \\      /  F ield         | OpenFOAM Extend Project: Open source CFD        |
|  \\    /   O peration     | Version:  1.6-ext                               |
|   \\  /    A nd           | Web:      www.extend-project.de                 |
|    \\/     M anipulation  |                                                 |
\*---------------------------------------------------------------------------*/
Build  : 1.6-ext-8673d8aecf4d
Exec   : chipAirCoolingSimpleFoam
Date   : Nov 01 2011
Time   : 21:09:48
Host   : diokletian
PID    : 17651
Case   : /home/henrus/projects/ChipAirCooling/run/tutorial1_resistance/conjugateContactCavity
nProcs : 1
SigFpe : Enabling floating point exception trapping (FOAM_SIGFPE).

// * * * * * * * * * * * * * * * * * * * * * * * * * * * * * * * * * * * * * //
Create time

Create mesh for time = 0


    From function void polyMesh::initMesh()
    in file meshes/polyMesh/polyMeshInitMesh.C at line 82
    Truncating neighbour list at 180 for backward compatibility

Reading g
Reading transportProperties

Calculating field g.h

Reading field p_rgh

Reading field U

Reading field T

Reading/calculating face flux field phi

Selecting incompressible transport model Newtonian
Selecting RAS turbulence model kEpsilon
kEpsilonCoeffs
{
    Cmu             0.09;
    C1              1.44;
    C2              1.92;
    alphaEps        0.76923;
    sigmaEps        1.3;
}

Reading field kappaEff

Creating radiation model

Selecting radiationModel P1
Selecting absorptionEmissionModel constantAbsorptionEmission
Selecting scatterModel constantScatter
Reading field Tsolid

Reading solid thermal properties
Selecting thermal model multiMaterialZones
Selecting thermal model constant
Selecting thermal model constant
Selecting thermal gap model constant
Reading solid diffusivity k


Starting time loop

--> FOAM Warning : 
    From function dlLibraryTable::open(const dictionary& dict, const word& libsEntry, const TablePtr tablePtr)
    in file lnInclude/dlLibraryTableTemplates.C at line 68
    library "libairbusMaterialModels.so" did not introduce any new entries

Time = 1

DILUPBiCG:  Solving for Ux, Initial residual = 1, Final residual = 9.72759e-05, No Iterations 2
DILUPBiCG:  Solving for Uy, Initial residual = 1, Final residual = 0.000174731, No Iterations 2
DICPCG:  Solving for p_rgh, Initial residual = 1, Final residual = 0.00985949, No Iterations 5
time step continuity errors : sum local = 0.00481111, global = 2.0845e-18, cumulative = 2.0845e-18
DILUPBiCG:  Solving for epsilon, Initial residual = 0.0778063, Final residual = 0.000142604, No Iterations 2
DILUPBiCG:  Solving for k, Initial residual = 1, Final residual = 0.00249972, No Iterations 2
DICPCG:  Solving for G, Initial residual = 1, Final residual = 0.0255384, No Iterations 11
BiCG:  Solving for T+T, Initial residual = 0.308087, Final residual = 0.0281111, No Iterations 3
ExecutionTime = 0.01 s



Wall heat fluxes [W]
movingWall 0.00204655 0 8.04921e-07 0.00204735
left 6.03184e-07 0 -1.20093e-06 -5.97748e-07
right -0.45454 0 8.04921e-07 -0.454539
bottom 0.0043404 0 -1.20093e-06 0.0043392
frontAndBack 0 0 0 0
sum -0.448152 0 -7.92022e-07 -0.448153


Wall heat fluxes [W]
topAndBottom 0 0 0 0
left -1.07375 0 0 -1.07375
right -18.4182 0 0 -18.4182
frontAndBack 0 0 0 0
sum -19.4919 0 0 -19.4919

Time = 2

DILUPBiCG:  Solving for Ux, Initial residual = 0.873928, Final residual = 8.90318e-05, No Iterations 2
DILUPBiCG:  Solving for Uy, Initial residual = 0.823313, Final residual = 0.00721361, No Iterations 1
DICPCG:  Solving for p_rgh, Initial residual = 0.890941, Final residual = 0.00653085, No Iterations 6
time step continuity errors : sum local = 0.0198132, global = -4.3609e-16, cumulative = -4.34005e-16
DILUPBiCG:  Solving for epsilon, Initial residual = 0.0229165, Final residual = 2.92141e-05, No Iterations 2
DILUPBiCG:  Solving for k, Initial residual = 0.653683, Final residual = 0.000819207, No Iterations 2
DICPCG:  Solving for G, Initial residual = 0.993803, Final residual = 0.0324221, No Iterations 13
BiCG:  Solving for T+T, Initial residual = 0.0317439, Final residual = 0.00219681, No Iterations 5
ExecutionTime = 0.02 s



Wall heat fluxes [W]
movingWall -0.207046 -6.90701e-17 0.291693 0.0846465
left 0.00776169 -4.63108e-22 0.292966 0.300728
right -0.37126 -1.83614e-14 -0.87154 -1.2428
bottom -0.188005 0 0.286884 0.0988788
frontAndBack 0 0 0 0
sum -0.75855 -1.84305e-14 2.82538e-06 -0.758547


Wall heat fluxes [W]
topAndBottom 0 0 0 0
left 33.0557 0 0 33.0557
right -7.16962 0 0 -7.16962
frontAndBack 0 0 0 0
sum 25.8861 0 0 25.8861

Time = 3

DILUPBiCG:  Solving for Ux, Initial residual = 0.419169, Final residual = 3.24155e-05, No Iterations 2
DILUPBiCG:  Solving for Uy, Initial residual = 0.512844, Final residual = 0.00424276, No Iterations 1
DICPCG:  Solving for p_rgh, Initial residual = 0.477898, Final residual = 0.00272621, No Iterations 6
time step continuity errors : sum local = 0.0067263, global = -2.08317e-16, cumulative = -6.42322e-16
DILUPBiCG:  Solving for epsilon, Initial residual = 0.0771844, Final residual = 4.57591e-05, No Iterations 2
DILUPBiCG:  Solving for k, Initial residual = 0.21957, Final residual = 0.000277886, No Iterations 2
DICPCG:  Solving for G, Initial residual = 0.183974, Final residual = 0.0131744, No Iterations 11
BiCG:  Solving for T+T, Initial residual = 0.00866185, Final residual = 0.000402502, No Iterations 5
ExecutionTime = 0.02 s



Wall heat fluxes [W]
movingWall -0.173466 -2.36437e-15 0.169736 -0.00373063
left 0.0105127 2.30337e-18 0.358049 0.368562
right -0.426161 -5.88688e-15 -0.658082 -1.08424
bottom -0.138412 0 0.130289 -0.00812292
frontAndBack 0 0 0 0
sum -0.727527 -8.24895e-15 -9.09541e-06 -0.727536


Wall heat fluxes [W]
topAndBottom 0 0 0 0
left 32.0049 0 0 32.0049
right -4.79277 0 0 -4.79277
frontAndBack 0 0 0 0
sum 27.2121 0 0 27.2121

Time = 4

DILUPBiCG:  Solving for Ux, Initial residual = 0.171925, Final residual = 1.74163e-05, No Iterations 2
DILUPBiCG:  Solving for Uy, Initial residual = 0.348147, Final residual = 0.0028703, No Iterations 1
DICPCG:  Solving for p_rgh, Initial residual = 0.179849, Final residual = 0.00156249, No Iterations 6
time step continuity errors : sum local = 0.00494534, global = -4.6289e-17, cumulative = -6.88611e-16
DILUPBiCG:  Solving for epsilon, Initial residual = 0.11726, Final residual = 0.000103575, No Iterations 2
DILUPBiCG:  Solving for k, Initial residual = 0.12945, Final residual = 0.000151972, No Iterations 2
DICPCG:  Solving for G, Initial residual = 0.121152, Final residual = 0.0035399, No Iterations 13
BiCG:  Solving for T+T, Initial residual = 0.00540512, Final residual = 0.000258506, No Iterations 5
ExecutionTime = 0.02 s



Wall heat fluxes [W]
movingWall -0.21824 -2.08628e-18 0.245922 0.0276818
left 0.0143521 -2.10013e-16 0.42609 0.440442
right -0.46537 -1.50944e-15 -0.887134 -1.3525
bottom -0.184361 0 0.215123 0.0307626
frontAndBack 0 0 0 0
sum -0.853619 -1.72154e-15 1.049e-06 -0.853618


Wall heat fluxes [W]
topAndBottom 0 0 0 0
left 22.7552 0 0 22.7552
right -3.71365 0 0 -3.71365
frontAndBack 0 0 0 0
sum 19.0416 0 0 19.0416

Time = 5

DILUPBiCG:  Solving for Ux, Initial residual = 0.135207, Final residual = 0.00132304, No Iterations 1
DILUPBiCG:  Solving for Uy, Initial residual = 0.20886, Final residual = 0.00167262, No Iterations 1
DICPCG:  Solving for p_rgh, Initial residual = 0.126699, Final residual = 0.00122373, No Iterations 11
time step continuity errors : sum local = 0.00301175, global = 2.40875e-17, cumulative = -6.64524e-16
DILUPBiCG:  Solving for epsilon, Initial residual = 0.137043, Final residual = 0.000133628, No Iterations 2
DILUPBiCG:  Solving for k, Initial residual = 0.0969006, Final residual = 0.000137248, No Iterations 2
DICPCG:  Solving for G, Initial residual = 0.101924, Final residual = 0.00288101, No Iterations 13
BiCG:  Solving for T+T, Initial residual = 0.00398596, Final residual = 0.000243857, No Iterations 4
ExecutionTime = 0.02 s



Wall heat fluxes [W]
movingWall -0.254291 1.21614e-15 0.278968 0.0246764
left 0.0183935 4.44414e-17 0.515241 0.533635
right -0.492184 6.29559e-18 -1.03596 -1.52815
bottom -0.218714 0 0.241756 0.023042
frontAndBack 0 0 0 0
sum -0.946796 1.26688e-15 -2.30685e-07 -0.946796


Wall heat fluxes [W]
topAndBottom 0 0 0 0
left 16.3305 0 0 16.3305
right -3.09579 0 0 -3.09579
frontAndBack 0 0 0 0
sum 13.2347 0 0 13.2347

Time = 6

DILUPBiCG:  Solving for Ux, Initial residual = 0.0969294, Final residual = 0.000829558, No Iterations 1
DILUPBiCG:  Solving for Uy, Initial residual = 0.125224, Final residual = 0.000974347, No Iterations 1
DICPCG:  Solving for p_rgh, Initial residual = 0.0895725, Final residual = 0.000516174, No Iterations 11
time step continuity errors : sum local = 0.00124749, global = 6.94501e-17, cumulative = -5.95074e-16
DILUPBiCG:  Solving for epsilon, Initial residual = 0.129119, Final residual = 0.000134605, No Iterations 2
DILUPBiCG:  Solving for k, Initial residual = 0.0807334, Final residual = 2.21762e-05, No Iterations 3
DICPCG:  Solving for G, Initial residual = 0.0700969, Final residual = 0.00199716, No Iterations 13
BiCG:  Solving for T+T, Initial residual = 0.00315117, Final residual = 0.000281485, No Iterations 3
ExecutionTime = 0.03 s



Wall heat fluxes [W]
movingWall -0.279958 3.12305e-15 0.29944 0.0194816
left 0.0228225 -1.62591e-18 0.585542 0.608365
right -0.508025 -7.8762e-16 -1.15064 -1.65866
bottom -0.245316 0 0.265656 0.02034
frontAndBack 0 0 0 0
sum -1.01048 2.3338e-15 -3.44042e-07 -1.01048


Wall heat fluxes [W]
topAndBottom 0 0 0 0
left 11.6469 0 0 11.6469
right -2.74481 0 0 -2.74481
frontAndBack 0 0 0 0
sum 8.90213 0 0 8.90213

Time = 7

DILUPBiCG:  Solving for Ux, Initial residual = 0.0718556, Final residual = 0.000588453, No Iterations 1
DILUPBiCG:  Solving for Uy, Initial residual = 0.0844484, Final residual = 0.000705162, No Iterations 1
DICPCG:  Solving for p_rgh, Initial residual = 0.0646606, Final residual = 0.000528454, No Iterations 10
time step continuity errors : sum local = 0.00108823, global = -1.45216e-16, cumulative = -7.40289e-16
DILUPBiCG:  Solving for epsilon, Initial residual = 0.106675, Final residual = 0.000119166, No Iterations 2
DILUPBiCG:  Solving for k, Initial residual = 0.0712747, Final residual = 0.000112734, No Iterations 2
DICPCG:  Solving for G, Initial residual = 0.0485367, Final residual = 0.00137097, No Iterations 13
BiCG:  Solving for T+T, Initial residual = 0.00266933, Final residual = 0.00013519, No Iterations 3
ExecutionTime = 0.03 s



Wall heat fluxes [W]
movingWall -0.298645 -1.85008e-15 0.313711 0.0150652
left 0.0273363 -2.61229e-16 0.638968 0.666304
right -0.516281 -3.95662e-15 -1.23087 -1.74715
bottom -0.261669 0 0.278193 0.0165236
frontAndBack 0 0 0 0
sum -1.04926 -6.06792e-15 -3.62189e-07 -1.04926


Wall heat fluxes [W]
topAndBottom 0 0 0 0
left 8.72163 0 0 8.72163
right -2.47124 0 0 -2.47124
frontAndBack 0 0 0 0
sum 6.25039 0 0 6.25039

Time = 8

DILUPBiCG:  Solving for Ux, Initial residual = 0.0575794, Final residual = 0.000456765, No Iterations 1
DILUPBiCG:  Solving for Uy, Initial residual = 0.0673832, Final residual = 0.000546261, No Iterations 1
DICPCG:  Solving for p_rgh, Initial residual = 0.0622758, Final residual = 0.000549538, No Iterations 10
time step continuity errors : sum local = 0.00112199, global = 4.1637e-16, cumulative = -3.2392e-16
DILUPBiCG:  Solving for epsilon, Initial residual = 0.0834692, Final residual = 0.000234665, No Iterations 2
DILUPBiCG:  Solving for k, Initial residual = 0.0665082, Final residual = 0.000121341, No Iterations 2
DICPCG:  Solving for G, Initial residual = 0.0337081, Final residual = 0.000925831, No Iterations 13
BiCG:  Solving for T+T, Initial residual = 0.00229475, Final residual = 0.000146886, No Iterations 3
ExecutionTime = 0.03 s



Wall heat fluxes [W]
movingWall -0.3111 1.89664e-15 0.322981 0.0118811
left 0.0308336 5.26794e-16 0.678418 0.709251
right -0.520221 1.6333e-14 -1.28591 -1.80613
bottom -0.27055 0 0.284512 0.0139626
frontAndBack 0 0 0 0
sum -1.07104 1.87564e-14 -3.08559e-07 -1.07104


Wall heat fluxes [W]
topAndBottom 0 0 0 0
left 6.44863 0 0 6.44863
right -2.30804 0 0 -2.30804
frontAndBack 0 0 0 0
sum 4.1406 0 0 4.1406

Time = 9

DILUPBiCG:  Solving for Ux, Initial residual = 0.0494667, Final residual = 0.000373098, No Iterations 1
DILUPBiCG:  Solving for Uy, Initial residual = 0.0563448, Final residual = 0.000447553, No Iterations 1
DICPCG:  Solving for p_rgh, Initial residual = 0.065323, Final residual = 0.000602052, No Iterations 10
time step continuity errors : sum local = 0.00120024, global = -5.50241e-17, cumulative = -3.78944e-16
DILUPBiCG:  Solving for epsilon, Initial residual = 0.0678491, Final residual = 0.00012228, No Iterations 2
DILUPBiCG:  Solving for k, Initial residual = 0.0629027, Final residual = 0.000110654, No Iterations 2
DICPCG:  Solving for G, Initial residual = 0.0246655, Final residual = 0.000667278, No Iterations 13
BiCG:  Solving for T+T, Initial residual = 0.00207058, Final residual = 0.000115726, No Iterations 3
ExecutionTime = 0.03 s



Wall heat fluxes [W]
movingWall -0.319458 -1.03906e-17 0.329364 0.00990633
left 0.033304 -8.6715e-18 0.708551 0.741855
right -0.520802 -2.40895e-15 -1.32461 -1.84541
bottom -0.275062 0 0.286691 0.011629
frontAndBack 0 0 0 0
sum -1.08202 -2.42801e-15 -2.55935e-07 -1.08202


Wall heat fluxes [W]
topAndBottom 0 0 0 0
left 5.10339 0 0 5.10339
right -2.18208 0 0 -2.18208
frontAndBack 0 0 0 0
sum 2.92131 0 0 2.92131

Time = 10

DILUPBiCG:  Solving for Ux, Initial residual = 0.0446008, Final residual = 0.000323521, No Iterations 1
DILUPBiCG:  Solving for Uy, Initial residual = 0.0521094, Final residual = 0.000389278, No Iterations 1
DICPCG:  Solving for p_rgh, Initial residual = 0.0673651, Final residual = 0.000586388, No Iterations 10
time step continuity errors : sum local = 0.0011337, global = -9.79382e-17, cumulative = -4.76882e-16
DILUPBiCG:  Solving for epsilon, Initial residual = 0.056204, Final residual = 5.72408e-05, No Iterations 2
DILUPBiCG:  Solving for k, Initial residual = 0.0599724, Final residual = 9.67973e-05, No Iterations 2
DICPCG:  Solving for G, Initial residual = 0.0180774, Final residual = 0.000483089, No Iterations 13
BiCG:  Solving for T+T, Initial residual = 0.00190014, Final residual = 0.00010299, No Iterations 3
ExecutionTime = 0.03 s



Wall heat fluxes [W]
movingWall -0.324161 -2.33245e-18 0.332281 0.00811991
left 0.0351947 1.82101e-16 0.73126 0.766455
right -0.51991 -4.81988e-15 -1.34968 -1.86959
bottom -0.27682 0 0.28614 0.00931968
frontAndBack 0 0 0 0
sum -1.0857 -4.64011e-15 -2.28927e-07 -1.0857


Wall heat fluxes [W]
topAndBottom 0 0 0 0
left 4.0784 0 0 4.0784
right -2.10463 0 0 -2.10463
frontAndBack 0 0 0 0
sum 1.97378 0 0 1.97378

Time = 11

DILUPBiCG:  Solving for Ux, Initial residual = 0.0411755, Final residual = 0.000287426, No Iterations 1
DILUPBiCG:  Solving for Uy, Initial residual = 0.0506919, Final residual = 0.000349276, No Iterations 1
DICPCG:  Solving for p_rgh, Initial residual = 0.0690874, Final residual = 0.000592752, No Iterations 10
time step continuity errors : sum local = 0.00111569, global = 3.34247e-16, cumulative = -1.42635e-16
DILUPBiCG:  Solving for epsilon, Initial residual = 0.04684, Final residual = 8.3696e-05, No Iterations 2
DILUPBiCG:  Solving for k, Initial residual = 0.0573577, Final residual = 8.26195e-05, No Iterations 2
DICPCG:  Solving for G, Initial residual = 0.0136927, Final residual = 0.000362955, No Iterations 13
BiCG:  Solving for T+T, Initial residual = 0.00179784, Final residual = 9.19583e-05, No Iterations 3
ExecutionTime = 0.04 s



Wall heat fluxes [W]
movingWall -0.326551 -1.89104e-15 0.333616 0.00706433
left 0.03671 -2.42802e-16 0.7488 0.78551
right -0.518032 1.85198e-14 -1.36748 -1.88551
bottom -0.277503 0 0.285064 0.00756018
frontAndBack 0 0 0 0
sum -1.08538 1.63859e-14 -1.86367e-07 -1.08538


Wall heat fluxes [W]
topAndBottom 0 0 0 0
left 3.44803 0 0 3.44803
right -2.04513 0 0 -2.04513
frontAndBack 0 0 0 0
sum 1.4029 0 0 1.4029

Time = 12

DILUPBiCG:  Solving for Ux, Initial residual = 0.0392135, Final residual = 0.000280218, No Iterations 1
DILUPBiCG:  Solving for Uy, Initial residual = 0.0499976, Final residual = 0.000326286, No Iterations 1
DICPCG:  Solving for p_rgh, Initial residual = 0.0709362, Final residual = 0.000581497, No Iterations 10
time step continuity errors : sum local = 0.00108182, global = 2.17449e-16, cumulative = 7.48144e-17
DILUPBiCG:  Solving for epsilon, Initial residual = 0.0395709, Final residual = 9.75535e-05, No Iterations 2
DILUPBiCG:  Solving for k, Initial residual = 0.0550683, Final residual = 7.1861e-05, No Iterations 2
DICPCG:  Solving for G, Initial residual = 0.0104589, Final residual = 0.000277304, No Iterations 13
BiCG:  Solving for T+T, Initial residual = 0.0017359, Final residual = 7.61961e-05, No Iterations 3
ExecutionTime = 0.04 s



Wall heat fluxes [W]
movingWall -0.327011 6.50311e-16 0.333096 0.00608446
left 0.0380463 -1.04058e-16 0.762377 0.800423
right -0.51591 8.86832e-15 -1.37902 -1.89493
bottom -0.277291 0 0.283548 0.0062572
frontAndBack 0 0 0 0
sum -1.08217 9.41457e-15 -1.50563e-07 -1.08217


Wall heat fluxes [W]
topAndBottom 0 0 0 0
left 2.97686 0 0 2.97686
right -2.00732 0 0 -2.00732
frontAndBack 0 0 0 0
sum 0.969543 0 0 0.969543

Time = 13

DILUPBiCG:  Solving for Ux, Initial residual = 0.0370055, Final residual = 0.00029588, No Iterations 1
DILUPBiCG:  Solving for Uy, Initial residual = 0.0487581, Final residual = 0.000305533, No Iterations 1
DICPCG:  Solving for p_rgh, Initial residual = 0.0710545, Final residual = 0.000591446, No Iterations 10
time step continuity errors : sum local = 0.00107811, global = -2.41801e-16, cumulative = -1.66987e-16
DILUPBiCG:  Solving for epsilon, Initial residual = 0.0339801, Final residual = 7.40886e-05, No Iterations 2
DILUPBiCG:  Solving for k, Initial residual = 0.052957, Final residual = 6.33149e-05, No Iterations 2
DICPCG:  Solving for G, Initial residual = 0.00828218, Final residual = 0.000216041, No Iterations 13
BiCG:  Solving for T+T, Initial residual = 0.00169168, Final residual = 6.84255e-05, No Iterations 3
ExecutionTime = 0.04 s



Wall heat fluxes [W]
movingWall -0.32642 -1.88984e-15 0.331814 0.00539378
left 0.039193 0 0.77323 0.812423
right -0.51371 -8.48285e-15 -1.38696 -1.90067
bottom -0.276598 0 0.281917 0.00531841
frontAndBack 0 0 0 0
sum -1.07753 -1.03727e-14 -1.13749e-07 -1.07753


Wall heat fluxes [W]
topAndBottom 0 0 0 0
left 2.67659 0 0 2.67659
right -1.97846 0 0 -1.97846
frontAndBack 0 0 0 0
sum 0.698129 0 0 0.698129

Time = 14

DILUPBiCG:  Solving for Ux, Initial residual = 0.0349093, Final residual = 5.65971e-05, No Iterations 2
DILUPBiCG:  Solving for Uy, Initial residual = 0.0475195, Final residual = 0.000294463, No Iterations 1
DICPCG:  Solving for p_rgh, Initial residual = 0.0695269, Final residual = 0.000609943, No Iterations 10
time step continuity errors : sum local = 0.00108567, global = -2.79124e-16, cumulative = -4.46111e-16
DILUPBiCG:  Solving for epsilon, Initial residual = 0.0297256, Final residual = 4.60432e-05, No Iterations 2
DILUPBiCG:  Solving for k, Initial residual = 0.0516306, Final residual = 6.0438e-05, No Iterations 2
DICPCG:  Solving for G, Initial residual = 0.0066636, Final residual = 0.000174873, No Iterations 13
BiCG:  Solving for T+T, Initial residual = 0.0016671, Final residual = 0.000137222, No Iterations 1
ExecutionTime = 0.04 s



Wall heat fluxes [W]
movingWall -0.325022 -1.29776e-15 0.329849 0.00482707
left 0.0401117 -1.90773e-16 0.782022 0.822133
right -0.511684 -1.25206e-14 -1.39197 -1.90365
bottom -0.275588 0 0.280099 0.00451109
frontAndBack 0 0 0 0
sum -1.07218 -1.40092e-14 -8.00544e-08 -1.07218


Wall heat fluxes [W]
topAndBottom 0 0 0 0
left 1.94735 0 0 1.94735
right -1.97665 0 0 -1.97665
frontAndBack 0 0 0 0
sum -0.0292983 0 0 -0.0292983

Time = 15

DILUPBiCG:  Solving for Ux, Initial residual = 0.033009, Final residual = 1.27192e-08, No Iterations 3
DILUPBiCG:  Solving for Uy, Initial residual = 0.0462091, Final residual = 0.000294479, No Iterations 1
DICPCG:  Solving for p_rgh, Initial residual = 0.0667708, Final residual = 0.000622848, No Iterations 10
time step continuity errors : sum local = 0.00108372, global = -2.64698e-17, cumulative = -4.72581e-16
DILUPBiCG:  Solving for epsilon, Initial residual = 0.0264971, Final residual = 3.10249e-05, No Iterations 2
DILUPBiCG:  Solving for k, Initial residual = 0.0507537, Final residual = 5.94229e-05, No Iterations 2
DICPCG:  Solving for G, Initial residual = 0.00550517, Final residual = 0.00014132, No Iterations 13
BiCG:  Solving for T+T, Initial residual = 0.0016566, Final residual = 0.00013656, No Iterations 1
ExecutionTime = 0.05 s



Wall heat fluxes [W]
movingWall -0.323025 -1.2848e-15 0.32752 0.00449499
left 0.041084 -8.6715e-17 0.789317 0.830401
right -0.508811 4.04529e-16 -1.39523 -1.90405
bottom -0.274646 0 0.278397 0.00375115
frontAndBack 0 0 0 0
sum -1.0654 -9.66981e-16 -5.18293e-08 -1.0654


Wall heat fluxes [W]
topAndBottom 0 0 0 0
left 1.94795 0 0 1.94795
right -1.97481 0 0 -1.97481
frontAndBack 0 0 0 0
sum -0.0268633 0 0 -0.0268633

Time = 16

DILUPBiCG:  Solving for Ux, Initial residual = 0.0320969, Final residual = 2.06328e-05, No Iterations 2
DILUPBiCG:  Solving for Uy, Initial residual = 0.0453837, Final residual = 0.000293852, No Iterations 1
DICPCG:  Solving for p_rgh, Initial residual = 0.0662819, Final residual = 0.000620111, No Iterations 10
time step continuity errors : sum local = 0.0010549, global = -1.71528e-16, cumulative = -6.44109e-16
DILUPBiCG:  Solving for epsilon, Initial residual = 0.0240728, Final residual = 2.39198e-05, No Iterations 2
DILUPBiCG:  Solving for k, Initial residual = 0.0504058, Final residual = 6.08449e-05, No Iterations 2
DICPCG:  Solving for G, Initial residual = 0.00367036, Final residual = 0.00036457, No Iterations 12
BiCG:  Solving for T+T, Initial residual = 0.00167247, Final residual = 0.000140505, No Iterations 1
ExecutionTime = 0.05 s



Wall heat fluxes [W]
movingWall -0.319636 -3.21871e-15 0.323403 0.00376786
left 0.0421902 -6.59034e-16 0.794174 0.836364
right -0.506586 -2.43136e-15 -1.39334 -1.89992
bottom -0.272934 0 0.275759 0.00282573
frontAndBack 0 0 0 0
sum -1.05696 -6.3091e-15 -4.83389e-08 -1.05696


Wall heat fluxes [W]
topAndBottom 0 0 0 0
left 1.95936 0 0 1.95936
right -1.973 0 0 -1.973
frontAndBack 0 0 0 0
sum -0.0136483 0 0 -0.0136483

Time = 17

DILUPBiCG:  Solving for Ux, Initial residual = 0.0301954, Final residual = 0.000185829, No Iterations 2
DILUPBiCG:  Solving for Uy, Initial residual = 0.0451806, Final residual = 0.000310953, No Iterations 1
DICPCG:  Solving for p_rgh, Initial residual = 0.0662523, Final residual = 0.000588571, No Iterations 10
time step continuity errors : sum local = 0.00100776, global = -6.14109e-17, cumulative = -7.0552e-16
DILUPBiCG:  Solving for epsilon, Initial residual = 0.0228242, Final residual = 1.99857e-05, No Iterations 2
DILUPBiCG:  Solving for k, Initial residual = 0.0503571, Final residual = 6.39916e-05, No Iterations 2
DICPCG:  Solving for G, Initial residual = 0.00330002, Final residual = 0.000328513, No Iterations 12
BiCG:  Solving for T+T, Initial residual = 0.00168561, Final residual = 0.000143292, No Iterations 1
ExecutionTime = 0.05 s



Wall heat fluxes [W]
movingWall -0.316184 -1.42341e-17 0.319982 0.00379839
left 0.043616 -2.42802e-16 0.798266 0.841882
right -0.504716 -2.01591e-15 -1.39246 -1.89718
bottom -0.271528 0 0.274212 0.00268364
frontAndBack 0 0 0 0
sum -1.04881 -2.27294e-15 1.14108e-09 -1.04881


Wall heat fluxes [W]
topAndBottom 0 0 0 0
left 1.95736 0 0 1.95736
right -1.97123 0 0 -1.97123
frontAndBack 0 0 0 0
sum -0.013865 0 0 -0.013865

Time = 18

DILUPBiCG:  Solving for Ux, Initial residual = 0.0288186, Final residual = 2.26187e-05, No Iterations 2
DILUPBiCG:  Solving for Uy, Initial residual = 0.0441347, Final residual = 0.000323899, No Iterations 1
DICPCG:  Solving for p_rgh, Initial residual = 0.0655265, Final residual = 0.000433741, No Iterations 10
time step continuity errors : sum local = 0.000763012, global = -9.95264e-17, cumulative = -8.05046e-16
DILUPBiCG:  Solving for epsilon, Initial residual = 0.0220352, Final residual = 1.92289e-05, No Iterations 2
DILUPBiCG:  Solving for k, Initial residual = 0.0505614, Final residual = 6.97128e-05, No Iterations 2
DICPCG:  Solving for G, Initial residual = 0.00317575, Final residual = 0.000282653, No Iterations 12
BiCG:  Solving for T+T, Initial residual = 0.00169778, Final residual = 0.000146214, No Iterations 1
ExecutionTime = 0.05 s



Wall heat fluxes [W]
movingWall -0.312505 4.48229e-15 0.316333 0.00382727
left 0.0454724 1.7343e-16 0.80219 0.847663
right -0.503145 -1.092e-14 -1.3913 -1.89445
bottom -0.270259 0 0.272779 0.00252058
frontAndBack 0 0 0 0
sum -1.04044 -6.26428e-15 4.95704e-08 -1.04044


Wall heat fluxes [W]
topAndBottom 0 0 0 0
left 1.95669 0 0 1.95669
right -1.9695 0 0 -1.9695
frontAndBack 0 0 0 0
sum -0.0128143 0 0 -0.0128143

Time = 19

DILUPBiCG:  Solving for Ux, Initial residual = 0.0275758, Final residual = 1.04477e-05, No Iterations 2
DILUPBiCG:  Solving for Uy, Initial residual = 0.0436818, Final residual = 0.000339974, No Iterations 1
DICPCG:  Solving for p_rgh, Initial residual = 0.0643433, Final residual = 0.000513464, No Iterations 9
time step continuity errors : sum local = 0.000883472, global = -6.08805e-17, cumulative = -8.65927e-16
DILUPBiCG:  Solving for epsilon, Initial residual = 0.021667, Final residual = 1.98419e-05, No Iterations 2
DILUPBiCG:  Solving for k, Initial residual = 0.0507785, Final residual = 7.56139e-05, No Iterations 2
DICPCG:  Solving for G, Initial residual = 0.00308131, Final residual = 0.000285774, No Iterations 11
BiCG:  Solving for T+T, Initial residual = 0.00170942, Final residual = 0.000148962, No Iterations 1
ExecutionTime = 0.05 s



Wall heat fluxes [W]
movingWall -0.308673 -2.51539e-15 0.312522 0.00384871
left 0.04794 2.08116e-16 0.806012 0.853952
right -0.501775 -8.01982e-16 -1.3901 -1.89188
bottom -0.269126 0 0.271568 0.00244225
frontAndBack 0 0 0 0
sum -1.03163 -3.10926e-15 -1.0064e-07 -1.03163


Wall heat fluxes [W]
topAndBottom 0 0 0 0
left 1.95482 0 0 1.95482
right -1.96783 0 0 -1.96783
frontAndBack 0 0 0 0
sum -0.013009 0 0 -0.013009

Time = 20

DILUPBiCG:  Solving for Ux, Initial residual = 0.0262093, Final residual = 7.2991e-06, No Iterations 2
DILUPBiCG:  Solving for Uy, Initial residual = 0.0437587, Final residual = 0.000348005, No Iterations 1
DICPCG:  Solving for p_rgh, Initial residual = 0.0622318, Final residual = 0.000354017, No Iterations 10
time step continuity errors : sum local = 0.000654685, global = -1.83435e-16, cumulative = -1.04936e-15
DILUPBiCG:  Solving for epsilon, Initial residual = 0.0215877, Final residual = 2.17885e-05, No Iterations 2
DILUPBiCG:  Solving for k, Initial residual = 0.0511346, Final residual = 8.20242e-05, No Iterations 2
DICPCG:  Solving for G, Initial residual = 0.00303881, Final residual = 0.000287492, No Iterations 11
BiCG:  Solving for T+T, Initial residual = 0.00171985, Final residual = 0.000151458, No Iterations 1
ExecutionTime = 0.06 s



Wall heat fluxes [W]
movingWall -0.304526 -6.34026e-16 0.308609 0.00408277
left 0.0512315 -2.08116e-16 0.809774 0.861006
right -0.500517 -7.28428e-15 -1.38884 -1.88935
bottom -0.268112 0 0.270453 0.00234172
frontAndBack 0 0 0 0
sum -1.02192 -8.12643e-15 -6.09435e-07 -1.02192


Wall heat fluxes [W]
topAndBottom 0 0 0 0
left 1.953 0 0 1.953
right -1.96619 0 0 -1.96619
frontAndBack 0 0 0 0
sum -0.0131879 0 0 -0.0131879

Time = 21

DILUPBiCG:  Solving for Ux, Initial residual = 0.0249468, Final residual = 5.4382e-06, No Iterations 2
DILUPBiCG:  Solving for Uy, Initial residual = 0.0428567, Final residual = 0.000351317, No Iterations 1
DICPCG:  Solving for p_rgh, Initial residual = 0.0601396, Final residual = 0.000574661, No Iterations 10
time step continuity errors : sum local = 0.00107432, global = 9.83352e-17, cumulative = -9.51027e-16
DILUPBiCG:  Solving for epsilon, Initial residual = 0.0213426, Final residual = 2.36792e-05, No Iterations 2
DILUPBiCG:  Solving for k, Initial residual = 0.0515758, Final residual = 8.81566e-05, No Iterations 2
DICPCG:  Solving for G, Initial residual = 0.00307576, Final residual = 0.000264825, No Iterations 11
BiCG:  Solving for T+T, Initial residual = 0.00172726, Final residual = 0.000154793, No Iterations 1
ExecutionTime = 0.06 s



Wall heat fluxes [W]
movingWall -0.299937 1.90788e-15 0.304274 0.00433615
left 0.0555635 -5.89662e-16 0.813583 0.869147
right -0.499309 4.06216e-15 -1.38744 -1.88675
bottom -0.267273 0 0.269586 0.0023131
frontAndBack 0 0 0 0
sum -1.01096 5.38038e-15 -2.9015e-07 -1.01096


Wall heat fluxes [W]
topAndBottom 0 0 0 0
left 1.95128 0 0 1.95128
right -1.96457 0 0 -1.96457
frontAndBack 0 0 0 0
sum -0.0132915 0 0 -0.0132915

Time = 22

DILUPBiCG:  Solving for Ux, Initial residual = 0.0236283, Final residual = 4.24248e-06, No Iterations 2
DILUPBiCG:  Solving for Uy, Initial residual = 0.0419125, Final residual = 0.00034923, No Iterations 1
DICPCG:  Solving for p_rgh, Initial residual = 0.0584903, Final residual = 0.000321897, No Iterations 11
time step continuity errors : sum local = 0.00061285, global = -1.39628e-16, cumulative = -1.09065e-15
DILUPBiCG:  Solving for epsilon, Initial residual = 0.0213341, Final residual = 2.44447e-05, No Iterations 2
DILUPBiCG:  Solving for k, Initial residual = 0.0519395, Final residual = 9.52209e-05, No Iterations 2
DICPCG:  Solving for G, Initial residual = 0.00313699, Final residual = 0.000147533, No Iterations 11
BiCG:  Solving for T+T, Initial residual = 0.00172806, Final residual = 0.000157941, No Iterations 1
ExecutionTime = 0.06 s



Wall heat fluxes [W]
movingWall -0.294899 -4.52418e-15 0.299543 0.00464433
left 0.0610703 2.42802e-16 0.817504 0.878575
right -0.498103 -1.4964e-18 -1.38593 -1.88404
bottom -0.266663 0 0.268885 0.0022225
frontAndBack 0 0 0 0
sum -0.998594 -4.28288e-15 -1.58502e-07 -0.998594


Wall heat fluxes [W]
topAndBottom 0 0 0 0
left 1.94964 0 0 1.94964
right -1.96296 0 0 -1.96296
frontAndBack 0 0 0 0
sum -0.0133237 0 0 -0.0133237

Time = 23

DILUPBiCG:  Solving for Ux, Initial residual = 0.0222542, Final residual = 3.93736e-06, No Iterations 2
DILUPBiCG:  Solving for Uy, Initial residual = 0.0407829, Final residual = 0.000358447, No Iterations 1
DICPCG:  Solving for p_rgh, Initial residual = 0.0556512, Final residual = 0.000248167, No Iterations 11
time step continuity errors : sum local = 0.000497344, global = -6.40569e-17, cumulative = -1.15471e-15
DILUPBiCG:  Solving for epsilon, Initial residual = 0.0210914, Final residual = 2.44712e-05, No Iterations 2
DILUPBiCG:  Solving for k, Initial residual = 0.0523916, Final residual = 0.00010088, No Iterations 2
DICPCG:  Solving for G, Initial residual = 0.00313638, Final residual = 0.000124782, No Iterations 11
BiCG:  Solving for T+T, Initial residual = 0.00172688, Final residual = 0.000161685, No Iterations 1
ExecutionTime = 0.06 s



Wall heat fluxes [W]
movingWall -0.289355 2.56658e-15 0.294313 0.00495843
left 0.0678459 -2.77488e-16 0.821543 0.889389
right -0.496852 -6.488e-15 -1.38434 -1.88119
bottom -0.266258 0 0.268482 0.00222477
frontAndBack 0 0 0 0
sum -0.984619 -4.19891e-15 -8.74092e-08 -0.984619


Wall heat fluxes [W]
topAndBottom 0 0 0 0
left 1.94801 0 0 1.94801
right -1.96136 0 0 -1.96136
frontAndBack 0 0 0 0
sum -0.0133449 0 0 -0.0133449

Time = 24

DILUPBiCG:  Solving for Ux, Initial residual = 0.0207882, Final residual = 3.7973e-06, No Iterations 2
DILUPBiCG:  Solving for Uy, Initial residual = 0.0392567, Final residual = 0.000372385, No Iterations 1
DICPCG:  Solving for p_rgh, Initial residual = 0.0532856, Final residual = 0.000463729, No Iterations 10
time step continuity errors : sum local = 0.000937507, global = -1.24937e-16, cumulative = -1.27965e-15
DILUPBiCG:  Solving for epsilon, Initial residual = 0.0204662, Final residual = 2.50594e-05, No Iterations 2
DILUPBiCG:  Solving for k, Initial residual = 0.0526658, Final residual = 0.000105449, No Iterations 2
DICPCG:  Solving for G, Initial residual = 0.00323654, Final residual = 0.000177399, No Iterations 11
BiCG:  Solving for T+T, Initial residual = 0.00172068, Final residual = 0.000165875, No Iterations 1
ExecutionTime = 0.06 s



Wall heat fluxes [W]
movingWall -0.283368 6.25099e-18 0.288627 0.00525939
left 0.0759666 0 0.825756 0.901722
right -0.495532 -4.84887e-15 -1.38263 -1.87816
bottom -0.265979 0 0.268247 0.0022679
frontAndBack 0 0 0 0
sum -0.968912 -4.84262e-15 -2.35817e-07 -0.968912


Wall heat fluxes [W]
topAndBottom 0 0 0 0
left 1.94647 0 0 1.94647
right -1.95975 0 0 -1.95975
frontAndBack 0 0 0 0
sum -0.013283 0 0 -0.013283

Time = 25

DILUPBiCG:  Solving for Ux, Initial residual = 0.0192075, Final residual = 3.89256e-06, No Iterations 2
DILUPBiCG:  Solving for Uy, Initial residual = 0.0376077, Final residual = 3.35628e-06, No Iterations 2
DICPCG:  Solving for p_rgh, Initial residual = 0.0508938, Final residual = 0.000441629, No Iterations 10
time step continuity errors : sum local = 0.000881791, global = -5.82335e-18, cumulative = -1.28547e-15
DILUPBiCG:  Solving for epsilon, Initial residual = 0.0194511, Final residual = 2.57592e-05, No Iterations 2
DILUPBiCG:  Solving for k, Initial residual = 0.0525334, Final residual = 0.000108516, No Iterations 2
DICPCG:  Solving for G, Initial residual = 0.00340441, Final residual = 0.000293023, No Iterations 11
BiCG:  Solving for T+T, Initial residual = 0.00170895, Final residual = 0.000170028, No Iterations 1
ExecutionTime = 0.07 s



Wall heat fluxes [W]
movingWall -0.277006 2.60709e-15 0.282535 0.00552809
left 0.0854647 -6.9372e-16 0.830165 0.915629
right -0.494126 -8.11187e-16 -1.38082 -1.87495
bottom -0.265788 0 0.26812 0.00233205
frontAndBack 0 0 0 0
sum -0.951456 1.10219e-15 -5.56024e-07 -0.951456


Wall heat fluxes [W]
topAndBottom 0 0 0 0
left 1.94491 0 0 1.94491
right -1.95814 0 0 -1.95814
frontAndBack 0 0 0 0
sum -0.0132311 0 0 -0.0132311

Time = 26

DILUPBiCG:  Solving for Ux, Initial residual = 0.0177008, Final residual = 4.30354e-06, No Iterations 2
DILUPBiCG:  Solving for Uy, Initial residual = 0.0355745, Final residual = 3.31021e-06, No Iterations 2
DICPCG:  Solving for p_rgh, Initial residual = 0.0484658, Final residual = 0.000448683, No Iterations 10
time step continuity errors : sum local = 0.000952402, global = 1.07467e-16, cumulative = -1.178e-15
DILUPBiCG:  Solving for epsilon, Initial residual = 0.0183024, Final residual = 2.5944e-05, No Iterations 2
DILUPBiCG:  Solving for k, Initial residual = 0.051888, Final residual = 0.000109615, No Iterations 2
DICPCG:  Solving for G, Initial residual = 0.00363397, Final residual = 0.000266696, No Iterations 12
BiCG:  Solving for T+T, Initial residual = 0.00168982, Final residual = 0.000158454, No Iterations 2
ExecutionTime = 0.07 s



Wall heat fluxes [W]
movingWall -0.27001 -2.55292e-15 0.2761 0.00608971
left 0.0966684 -6.9372e-17 0.834772 0.93144
right -0.492727 7.30158e-15 -1.37893 -1.87166
bottom -0.265589 0 0.268059 0.00246967
frontAndBack 0 0 0 0
sum -0.931658 4.67929e-15 -1.18646e-07 -0.931658


Wall heat fluxes [W]
topAndBottom 0 0 0 0
left 2.09289 0 0 2.09289
right -1.95325 0 0 -1.95325
frontAndBack 0 0 0 0
sum 0.139637 0 0 0.139637

Time = 27

DILUPBiCG:  Solving for Ux, Initial residual = 0.016366, Final residual = 2.11024e-05, No Iterations 2
DILUPBiCG:  Solving for Uy, Initial residual = 0.0327565, Final residual = 3.47425e-06, No Iterations 2
DICPCG:  Solving for p_rgh, Initial residual = 0.0437155, Final residual = 0.000362349, No Iterations 11
time step continuity errors : sum local = 0.000804111, global = 1.36849e-16, cumulative = -1.04116e-15
DILUPBiCG:  Solving for epsilon, Initial residual = 0.016905, Final residual = 2.55748e-05, No Iterations 2
DILUPBiCG:  Solving for k, Initial residual = 0.050693, Final residual = 0.000109381, No Iterations 2
DICPCG:  Solving for G, Initial residual = 0.00387734, Final residual = 0.000346052, No Iterations 12
BiCG:  Solving for T+T, Initial residual = 0.00166407, Final residual = 0.000156557, No Iterations 2
ExecutionTime = 0.07 s



Wall heat fluxes [W]
movingWall -0.26283 1.2937e-15 0.268917 0.00608716
left 0.108744 -6.9372e-16 0.839762 0.948506
right -0.491534 6.0891e-15 -1.37678 -1.86832
bottom -0.265459 0 0.268102 0.00264346
frontAndBack 0 0 0 0
sum -0.911078 6.68908e-15 9.97636e-08 -0.911078


Wall heat fluxes [W]
topAndBottom 0 0 0 0
left 2.06001 0 0 2.06001
right -1.94833 0 0 -1.94833
frontAndBack 0 0 0 0
sum 0.111678 0 0 0.111678

Time = 28

DILUPBiCG:  Solving for Ux, Initial residual = 0.0149486, Final residual = 2.06544e-05, No Iterations 2
DILUPBiCG:  Solving for Uy, Initial residual = 0.0299391, Final residual = 3.4755e-06, No Iterations 2
DICPCG:  Solving for p_rgh, Initial residual = 0.0400601, Final residual = 0.00037522, No Iterations 11
time step continuity errors : sum local = 0.000830198, global = -1.99053e-16, cumulative = -1.24021e-15
DILUPBiCG:  Solving for epsilon, Initial residual = 0.0154714, Final residual = 2.50612e-05, No Iterations 2
DILUPBiCG:  Solving for k, Initial residual = 0.0491937, Final residual = 0.000107437, No Iterations 2
DICPCG:  Solving for G, Initial residual = 0.00429805, Final residual = 0.000316989, No Iterations 11
BiCG:  Solving for T+T, Initial residual = 0.00163225, Final residual = 0.000152271, No Iterations 2
ExecutionTime = 0.07 s



Wall heat fluxes [W]
movingWall -0.256001 -2.6491e-15 0.262243 0.00624172
left 0.121605 6.9372e-16 0.84525 0.966855
right -0.490126 -8.52843e-15 -1.3758 -1.86592
bottom -0.26545 0 0.268302 0.00285256
frontAndBack 0 0 0 0
sum -0.889971 -1.04838e-14 -5.91973e-07 -0.889972


Wall heat fluxes [W]
topAndBottom 0 0 0 0
left 2.04318 0 0 2.04318
right -1.94341 0 0 -1.94341
frontAndBack 0 0 0 0
sum 0.099768 0 0 0.099768

Time = 29

DILUPBiCG:  Solving for Ux, Initial residual = 0.0137927, Final residual = 1.25195e-05, No Iterations 2
DILUPBiCG:  Solving for Uy, Initial residual = 0.0271981, Final residual = 3.12424e-06, No Iterations 2
DICPCG:  Solving for p_rgh, Initial residual = 0.0380576, Final residual = 0.000323524, No Iterations 11
time step continuity errors : sum local = 0.0007298, global = 1.66098e-16, cumulative = -1.07411e-15
DILUPBiCG:  Solving for epsilon, Initial residual = 0.0139083, Final residual = 2.52689e-05, No Iterations 2
DILUPBiCG:  Solving for k, Initial residual = 0.0474976, Final residual = 0.000104589, No Iterations 2
DICPCG:  Solving for G, Initial residual = 0.00439141, Final residual = 0.000339214, No Iterations 11
BiCG:  Solving for T+T, Initial residual = 0.00159444, Final residual = 0.000149252, No Iterations 2
ExecutionTime = 0.08 s



Wall heat fluxes [W]
movingWall -0.249231 -4.54846e-15 0.255348 0.00611676
left 0.135055 -4.50918e-16 0.850829 0.985884
right -0.488598 1.29876e-14 -1.37435 -1.86295
bottom -0.265278 0 0.268172 0.00289369
frontAndBack 0 0 0 0
sum -0.868053 7.98818e-15 -2.46697e-07 -0.868053


Wall heat fluxes [W]
topAndBottom 0 0 0 0
left 2.03348 0 0 2.03348
right -1.93859 0 0 -1.93859
frontAndBack 0 0 0 0
sum 0.09489 0 0 0.09489

Time = 30

DILUPBiCG:  Solving for Ux, Initial residual = 0.0126143, Final residual = 5.69731e-06, No Iterations 2
DILUPBiCG:  Solving for Uy, Initial residual = 0.024738, Final residual = 2.94114e-06, No Iterations 2
DICPCG:  Solving for p_rgh, Initial residual = 0.0359635, Final residual = 0.000218081, No Iterations 11
time step continuity errors : sum local = 0.000502444, global = 1.4876e-16, cumulative = -9.25351e-16
DILUPBiCG:  Solving for epsilon, Initial residual = 0.012417, Final residual = 2.67643e-05, No Iterations 2
DILUPBiCG:  Solving for k, Initial residual = 0.0454095, Final residual = 0.000101127, No Iterations 2
DICPCG:  Solving for G, Initial residual = 0.00437679, Final residual = 0.000328039, No Iterations 11
BiCG:  Solving for T+T, Initial residual = 0.00155858, Final residual = 0.00014655, No Iterations 2
ExecutionTime = 0.08 s



Wall heat fluxes [W]
movingWall -0.242708 3.26767e-15 0.248668 0.0059594
left 0.148854 -6.9372e-17 0.856371 1.00523
right -0.486956 2.44022e-15 -1.37296 -1.85992
bottom -0.265004 0 0.267925 0.002921
frontAndBack 0 0 0 0
sum -0.845815 5.63852e-15 -2.863e-07 -0.845815


Wall heat fluxes [W]
topAndBottom 0 0 0 0
left 2.02496 0 0 2.02496
right -1.9339 0 0 -1.9339
frontAndBack 0 0 0 0
sum 0.0910595 0 0 0.0910595

Time = 31

DILUPBiCG:  Solving for Ux, Initial residual = 0.0116488, Final residual = 4.01878e-06, No Iterations 2
DILUPBiCG:  Solving for Uy, Initial residual = 0.0219154, Final residual = 3.05905e-06, No Iterations 2
DICPCG:  Solving for p_rgh, Initial residual = 0.0336743, Final residual = 0.000149476, No Iterations 11
time step continuity errors : sum local = 0.000332105, global = -2.23934e-16, cumulative = -1.14929e-15
DILUPBiCG:  Solving for epsilon, Initial residual = 0.0112659, Final residual = 3.13636e-05, No Iterations 2
DILUPBiCG:  Solving for k, Initial residual = 0.0429822, Final residual = 9.82204e-05, No Iterations 2
DICPCG:  Solving for G, Initial residual = 0.00431591, Final residual = 0.000306103, No Iterations 11
BiCG:  Solving for T+T, Initial residual = 0.00152175, Final residual = 0.000144274, No Iterations 2
ExecutionTime = 0.08 s



Wall heat fluxes [W]
movingWall -0.236498 -2.64312e-15 0.242229 0.00573031
left 0.162755 -3.12174e-16 0.861839 1.02459
right -0.485223 -6.08615e-15 -1.37162 -1.85684
bottom -0.264574 0 0.267551 0.00297757
frontAndBack 0 0 0 0
sum -0.82354 -9.04144e-15 -1.0276e-07 -0.82354


Wall heat fluxes [W]
topAndBottom 0 0 0 0
left 2.01777 0 0 2.01777
right -1.92934 0 0 -1.92934
frontAndBack 0 0 0 0
sum 0.0884347 0 0 0.0884347

Time = 32

DILUPBiCG:  Solving for Ux, Initial residual = 0.0108366, Final residual = 3.28014e-06, No Iterations 2
DILUPBiCG:  Solving for Uy, Initial residual = 0.0194379, Final residual = 3.14108e-06, No Iterations 2
DICPCG:  Solving for p_rgh, Initial residual = 0.031282, Final residual = 0.000181391, No Iterations 11
time step continuity errors : sum local = 0.000396753, global = -4.97632e-17, cumulative = -1.19905e-15
DILUPBiCG:  Solving for epsilon, Initial residual = 0.0105314, Final residual = 4.69675e-05, No Iterations 2
DILUPBiCG:  Solving for k, Initial residual = 0.040683, Final residual = 0.000104428, No Iterations 2
DICPCG:  Solving for G, Initial residual = 0.00422057, Final residual = 0.000327181, No Iterations 11
BiCG:  Solving for T+T, Initial residual = 0.00148551, Final residual = 0.000142439, No Iterations 2
ExecutionTime = 0.08 s



Wall heat fluxes [W]
movingWall -0.23068 6.77097e-16 0.236154 0.00547417
left 0.176503 -2.11585e-15 0.867213 1.04372
right -0.483418 -5.02198e-18 -1.37034 -1.85376
bottom -0.263907 0 0.26697 0.00306254
frontAndBack 0 0 0 0
sum -0.801502 -1.44377e-15 -1.15486e-07 -0.801502


Wall heat fluxes [W]
topAndBottom 0 0 0 0
left 2.01156 0 0 2.01156
right -1.92489 0 0 -1.92489
frontAndBack 0 0 0 0
sum 0.0866757 0 0 0.0866757

Time = 33

DILUPBiCG:  Solving for Ux, Initial residual = 0.0100851, Final residual = 2.81821e-06, No Iterations 2
DILUPBiCG:  Solving for Uy, Initial residual = 0.0172211, Final residual = 9.48746e-06, No Iterations 2
DICPCG:  Solving for p_rgh, Initial residual = 0.0284969, Final residual = 0.00023706, No Iterations 7
time step continuity errors : sum local = 0.000768517, global = 9.42324e-17, cumulative = -1.10482e-15
DILUPBiCG:  Solving for epsilon, Initial residual = 0.00997971, Final residual = 4.05814e-07, No Iterations 3
DILUPBiCG:  Solving for k, Initial residual = 0.0384793, Final residual = 5.63706e-06, No Iterations 3
DICPCG:  Solving for G, Initial residual = 0.00416395, Final residual = 0.000269289, No Iterations 11
BiCG:  Solving for T+T, Initial residual = 0.00145606, Final residual = 0.000141048, No Iterations 2
ExecutionTime = 0.08 s



Wall heat fluxes [W]
movingWall -0.225284 1.99282e-15 0.230498 0.005214
left 0.189878 1.69961e-15 0.872492 1.06237
right -0.481561 -2.44215e-15 -1.36911 -1.85068
bottom -0.26298 0 0.266124 0.00314397
frontAndBack 0 0 0 0
sum -0.779948 1.25028e-15 -1.30079e-07 -0.779948


Wall heat fluxes [W]
topAndBottom 0 0 0 0
left 2.00625 0 0 2.00625
right -1.92052 0 0 -1.92052
frontAndBack 0 0 0 0
sum 0.0857322 0 0 0.0857322

Time = 34

DILUPBiCG:  Solving for Ux, Initial residual = 0.00932701, Final residual = 2.45452e-06, No Iterations 2
DILUPBiCG:  Solving for Uy, Initial residual = 0.0154497, Final residual = 5.54777e-06, No Iterations 2
DICPCG:  Solving for p_rgh, Initial residual = 0.0260595, Final residual = 0.000250454, No Iterations 11
time step continuity errors : sum local = 0.000570864, global = 1.34996e-17, cumulative = -1.09132e-15
DILUPBiCG:  Solving for epsilon, Initial residual = 0.00962093, Final residual = 4.33642e-05, No Iterations 2
DILUPBiCG:  Solving for k, Initial residual = 0.0363719, Final residual = 5.29504e-05, No Iterations 2
DICPCG:  Solving for G, Initial residual = 0.00405401, Final residual = 0.000194413, No Iterations 11
BiCG:  Solving for T+T, Initial residual = 0.00142625, Final residual = 0.000140274, No Iterations 2
ExecutionTime = 0.09 s



Wall heat fluxes [W]
movingWall -0.220337 -2.67723e-15 0.225264 0.00492729
left 0.202652 -7.97778e-16 0.877672 1.08032
right -0.47967 4.47677e-15 -1.36795 -1.84763
bottom -0.261744 0 0.265018 0.00327463
frontAndBack 0 0 0 0
sum -0.759099 1.00175e-15 -1.17959e-07 -0.759099


Wall heat fluxes [W]
topAndBottom 0 0 0 0
left 2.0017 0 0 2.0017
right -1.9162 0 0 -1.9162
frontAndBack 0 0 0 0
sum 0.0854939 0 0 0.0854939

Time = 35

DILUPBiCG:  Solving for Ux, Initial residual = 0.00870359, Final residual = 8.36199e-05, No Iterations 1
DILUPBiCG:  Solving for Uy, Initial residual = 0.013935, Final residual = 2.70802e-05, No Iterations 2
DICPCG:  Solving for p_rgh, Initial residual = 0.0233164, Final residual = 0.00022603, No Iterations 6
time step continuity errors : sum local = 0.000491359, global = -1.51142e-16, cumulative = -1.24246e-15
DILUPBiCG:  Solving for epsilon, Initial residual = 0.00923112, Final residual = 1.79399e-05, No Iterations 2
DILUPBiCG:  Solving for k, Initial residual = 0.0344569, Final residual = 5.17001e-05, No Iterations 2
DICPCG:  Solving for G, Initial residual = 0.00393905, Final residual = 0.00013866, No Iterations 11
BiCG:  Solving for T+T, Initial residual = 0.00139894, Final residual = 0.000114071, No Iterations 3
ExecutionTime = 0.09 s



Wall heat fluxes [W]
movingWall -0.21597 -2.64193e-15 0.220517 0.00454765
left 0.214614 2.08116e-16 0.882766 1.09738
right -0.477677 -1.62783e-15 -1.36685 -1.84453
bottom -0.260294 0 0.263565 0.00327146
frontAndBack 0 0 0 0
sum -0.739327 -4.06165e-15 -9.90206e-08 -0.739327


Wall heat fluxes [W]
topAndBottom 0 0 0 0
left 2.35541 0 0 2.35541
right -1.90055 0 0 -1.90055
frontAndBack 0 0 0 0
sum 0.454866 0 0 0.454866

Time = 36

DILUPBiCG:  Solving for Ux, Initial residual = 0.00792259, Final residual = 7.30606e-05, No Iterations 1
DILUPBiCG:  Solving for Uy, Initial residual = 0.0127416, Final residual = 2.84633e-05, No Iterations 2
DICPCG:  Solving for p_rgh, Initial residual = 0.020203, Final residual = 8.2951e-05, No Iterations 7
time step continuity errors : sum local = 0.000251644, global = -2.64962e-16, cumulative = -1.50742e-15
DILUPBiCG:  Solving for epsilon, Initial residual = 0.00885792, Final residual = 1.13237e-05, No Iterations 2
DILUPBiCG:  Solving for k, Initial residual = 0.0327582, Final residual = 5.40981e-05, No Iterations 2
DICPCG:  Solving for G, Initial residual = 0.00374815, Final residual = 0.000184793, No Iterations 11
BiCG:  Solving for T+T, Initial residual = 0.00138012, Final residual = 0.000135732, No Iterations 1
ExecutionTime = 0.09 s



Wall heat fluxes [W]
movingWall -0.211957 -1.54609e-17 0.216331 0.00437378
left 0.226254 5.54976e-16 0.887659 1.11391
right -0.476314 -1.18105e-14 -1.36591 -1.84222
bottom -0.258746 0 0.26192 0.00317459
frontAndBack 0 0 0 0
sum -0.720764 -1.1271e-14 -1.13175e-07 -0.720764


Wall heat fluxes [W]
topAndBottom 0 0 0 0
left 1.89017 0 0 1.89017
right -1.8991 0 0 -1.8991
frontAndBack 0 0 0 0
sum -0.00893784 0 0 -0.00893784

Time = 37

DILUPBiCG:  Solving for Ux, Initial residual = 0.00711363, Final residual = 6.2912e-05, No Iterations 1
DILUPBiCG:  Solving for Uy, Initial residual = 0.0122072, Final residual = 4.9575e-06, No Iterations 2
DICPCG:  Solving for p_rgh, Initial residual = 0.0185178, Final residual = 0.000155317, No Iterations 7
time step continuity errors : sum local = 0.000526061, global = 2.13082e-16, cumulative = -1.29434e-15
DILUPBiCG:  Solving for epsilon, Initial residual = 0.0085164, Final residual = 9.41974e-06, No Iterations 2
DILUPBiCG:  Solving for k, Initial residual = 0.0312225, Final residual = 5.96328e-05, No Iterations 2
DICPCG:  Solving for G, Initial residual = 0.00435023, Final residual = 0.000399201, No Iterations 12
BiCG:  Solving for T+T, Initial residual = 0.00131619, Final residual = 0.000111298, No Iterations 2
ExecutionTime = 0.09 s



Wall heat fluxes [W]
movingWall -0.20873 -1.46987e-17 0.213257 0.00452742
left 0.236569 1.10995e-15 0.893307 1.12988
right -0.474086 9.76882e-15 -1.3678 -1.84189
bottom -0.257307 0 0.261236 0.00392917
frontAndBack 0 0 0 0
sum -0.703554 1.08641e-14 -5.4689e-09 -0.703554


Wall heat fluxes [W]
topAndBottom 0 0 0 0
left 1.96697 0 0 1.96697
right -1.89533 0 0 -1.89533
frontAndBack 0 0 0 0
sum 0.0716382 0 0 0.0716382

Time = 38

DILUPBiCG:  Solving for Ux, Initial residual = 0.0073083, Final residual = 6.25714e-05, No Iterations 1
DILUPBiCG:  Solving for Uy, Initial residual = 0.0105628, Final residual = 1.99178e-06, No Iterations 2
DICPCG:  Solving for p_rgh, Initial residual = 0.0151305, Final residual = 0.000136392, No Iterations 11
time step continuity errors : sum local = 0.000308385, global = -1.71524e-16, cumulative = -1.46586e-15
DILUPBiCG:  Solving for epsilon, Initial residual = 0.00823387, Final residual = 8.80312e-06, No Iterations 2
DILUPBiCG:  Solving for k, Initial residual = 0.0296251, Final residual = 6.93386e-05, No Iterations 2
DICPCG:  Solving for G, Initial residual = 0.00386877, Final residual = 0.00013969, No Iterations 11
BiCG:  Solving for T+T, Initial residual = 0.00130063, Final residual = 0.000118009, No Iterations 2
ExecutionTime = 0.1 s



Wall heat fluxes [W]
movingWall -0.205186 -3.93264e-17 0.209052 0.00386631
left 0.245941 6.9372e-17 0.89815 1.14409
right -0.472146 -8.55513e-15 -1.36542 -1.83757
bottom -0.254885 0 0.258222 0.00333741
frontAndBack 0 0 0 0
sum -0.686276 -8.52509e-15 -1.4075e-07 -0.686276


Wall heat fluxes [W]
topAndBottom 0 0 0 0
left 1.9665 0 0 1.9665
right -1.89169 0 0 -1.89169
frontAndBack 0 0 0 0
sum 0.0748089 0 0 0.0748089

Time = 39

DILUPBiCG:  Solving for Ux, Initial residual = 0.00687192, Final residual = 5.93765e-05, No Iterations 1
DILUPBiCG:  Solving for Uy, Initial residual = 0.0107255, Final residual = 1.67331e-06, No Iterations 2
DICPCG:  Solving for p_rgh, Initial residual = 0.0132061, Final residual = 0.00012447, No Iterations 11
time step continuity errors : sum local = 0.000278938, global = -2.11758e-18, cumulative = -1.46798e-15
DILUPBiCG:  Solving for epsilon, Initial residual = 0.00789187, Final residual = 8.27085e-06, No Iterations 2
DILUPBiCG:  Solving for k, Initial residual = 0.0280237, Final residual = 8.13675e-05, No Iterations 2
DICPCG:  Solving for G, Initial residual = 0.00351195, Final residual = 0.000344547, No Iterations 11
BiCG:  Solving for T+T, Initial residual = 0.00128478, Final residual = 0.000122672, No Iterations 2
ExecutionTime = 0.1 s



Wall heat fluxes [W]
movingWall -0.202132 1.65303e-15 0.205904 0.00377188
left 0.2544 -1.31807e-15 0.902719 1.15712
right -0.470112 4.05802e-16 -1.36475 -1.83486
bottom -0.252509 0 0.256124 0.00361482
frontAndBack 0 0 0 0
sum -0.670353 7.40765e-16 -1.71453e-07 -0.670353


Wall heat fluxes [W]
topAndBottom 0 0 0 0
left 1.96258 0 0 1.96258
right -1.88817 0 0 -1.88817
frontAndBack 0 0 0 0
sum 0.0744109 0 0 0.0744109

Time = 40

DILUPBiCG:  Solving for Ux, Initial residual = 0.00670864, Final residual = 5.7795e-05, No Iterations 1
DILUPBiCG:  Solving for Uy, Initial residual = 0.0104841, Final residual = 1.47074e-06, No Iterations 2
DICPCG:  Solving for p_rgh, Initial residual = 0.0119905, Final residual = 0.000108383, No Iterations 7
time step continuity errors : sum local = 0.000362526, global = -1.19114e-17, cumulative = -1.47989e-15
DILUPBiCG:  Solving for epsilon, Initial residual = 0.00753273, Final residual = 7.42619e-06, No Iterations 2
DILUPBiCG:  Solving for k, Initial residual = 0.0264692, Final residual = 9.04988e-05, No Iterations 2
DICPCG:  Solving for G, Initial residual = 0.00364188, Final residual = 0.000263939, No Iterations 12
BiCG:  Solving for T+T, Initial residual = 0.00126787, Final residual = 0.000103788, No Iterations 3
ExecutionTime = 0.1 s



Wall heat fluxes [W]
movingWall -0.199387 -3.96538e-15 0.20294 0.00355275
left 0.262001 2.77488e-15 0.907288 1.16929
right -0.467975 8.08354e-16 -1.3637 -1.83168
bottom -0.249961 0 0.253474 0.00351378
frontAndBack 0 0 0 0
sum -0.655323 -3.82147e-16 1.50582e-07 -0.655323


Wall heat fluxes [W]
topAndBottom 0 0 0 0
left 2.24221 0 0 2.24221
right -1.87585 0 0 -1.87585
frontAndBack 0 0 0 0
sum 0.366353 0 0 0.366353

Time = 41

DILUPBiCG:  Solving for Ux, Initial residual = 0.00648709, Final residual = 5.80295e-05, No Iterations 1
DILUPBiCG:  Solving for Uy, Initial residual = 0.0104336, Final residual = 1.33391e-06, No Iterations 2
DICPCG:  Solving for p_rgh, Initial residual = 0.0108876, Final residual = 0.000102475, No Iterations 10
time step continuity errors : sum local = 0.000231437, global = -1.93759e-16, cumulative = -1.67365e-15
DILUPBiCG:  Solving for epsilon, Initial residual = 0.00722025, Final residual = 6.63837e-06, No Iterations 2
DILUPBiCG:  Solving for k, Initial residual = 0.0249727, Final residual = 9.42724e-05, No Iterations 2
DICPCG:  Solving for G, Initial residual = 0.00348395, Final residual = 0.000266275, No Iterations 12
BiCG:  Solving for T+T, Initial residual = 0.00125823, Final residual = 0.000111936, No Iterations 1
ExecutionTime = 0.1 s



Wall heat fluxes [W]
movingWall -0.196866 -1.32566e-15 0.200274 0.00340879
left 0.26915 -2.08116e-15 0.911714 1.18086
right -0.466261 -5.71509e-15 -1.36287 -1.82913
bottom -0.247463 0 0.250885 0.00342232
frontAndBack 0 0 0 0
sum -0.641439 -9.12192e-15 1.62487e-07 -0.641439


Wall heat fluxes [W]
topAndBottom 0 0 0 0
left 1.86578 0 0 1.86578
right -1.8747 0 0 -1.8747
frontAndBack 0 0 0 0
sum -0.00891744 0 0 -0.00891744

Time = 42

DILUPBiCG:  Solving for Ux, Initial residual = 0.00621258, Final residual = 1.33488e-06, No Iterations 2
DILUPBiCG:  Solving for Uy, Initial residual = 0.010438, Final residual = 1.3142e-06, No Iterations 2
DICPCG:  Solving for p_rgh, Initial residual = 0.0111583, Final residual = 7.04558e-05, No Iterations 10
time step continuity errors : sum local = 0.000159646, global = -4.76456e-17, cumulative = -1.7213e-15
DILUPBiCG:  Solving for epsilon, Initial residual = 0.00691751, Final residual = 6.00905e-06, No Iterations 2
DILUPBiCG:  Solving for k, Initial residual = 0.0235469, Final residual = 9.3215e-05, No Iterations 2
DICPCG:  Solving for G, Initial residual = 0.00392928, Final residual = 0.000355056, No Iterations 12
BiCG:  Solving for T+T, Initial residual = 0.00119931, Final residual = 0.000112028, No Iterations 1
ExecutionTime = 0.1 s



Wall heat fluxes [W]
movingWall -0.194952 -9.99875e-16 0.198497 0.00354483
left 0.275533 -1.04058e-15 0.916733 1.19227
right -0.463688 1.63864e-15 -1.36431 -1.828
bottom -0.245286 0 0.249079 0.00379309
frontAndBack 0 0 0 0
sum -0.628393 -4.0182e-16 8.34797e-08 -0.628393


Wall heat fluxes [W]
topAndBottom 0 0 0 0
left 1.85556 0 0 1.85556
right -1.87351 0 0 -1.87351
frontAndBack 0 0 0 0
sum -0.0179458 0 0 -0.0179458

Time = 43

DILUPBiCG:  Solving for Ux, Initial residual = 0.00661685, Final residual = 5.91415e-05, No Iterations 1
DILUPBiCG:  Solving for Uy, Initial residual = 0.00973648, Final residual = 1.22152e-06, No Iterations 2
DICPCG:  Solving for p_rgh, Initial residual = 0.0110536, Final residual = 8.35963e-05, No Iterations 5
time step continuity errors : sum local = 0.000311375, global = -1.77348e-17, cumulative = -1.73903e-15
DILUPBiCG:  Solving for epsilon, Initial residual = 0.00665025, Final residual = 5.52054e-06, No Iterations 2
DILUPBiCG:  Solving for k, Initial residual = 0.0221826, Final residual = 8.84173e-05, No Iterations 2
DICPCG:  Solving for G, Initial residual = 0.00340906, Final residual = 0.000295504, No Iterations 11
BiCG:  Solving for T+T, Initial residual = 0.00118662, Final residual = 0.000116001, No Iterations 1
ExecutionTime = 0.11 s



Wall heat fluxes [W]
movingWall -0.192639 1.06178e-17 0.195674 0.00303444
left 0.281223 9.71208e-16 0.920988 1.20221
right -0.461188 -1.63297e-15 -1.36242 -1.82361
bottom -0.242479 0 0.245758 0.00327914
frontAndBack 0 0 0 0
sum -0.615082 -6.51141e-16 -2.23828e-08 -0.615082


Wall heat fluxes [W]
topAndBottom 0 0 0 0
left 1.86678 0 0 1.86678
right -1.87234 0 0 -1.87234
frontAndBack 0 0 0 0
sum -0.00555645 0 0 -0.00555645

Time = 44

DILUPBiCG:  Solving for Ux, Initial residual = 0.00650504, Final residual = 6.01873e-05, No Iterations 1
DILUPBiCG:  Solving for Uy, Initial residual = 0.010126, Final residual = 1.09158e-06, No Iterations 2
DICPCG:  Solving for p_rgh, Initial residual = 0.0111889, Final residual = 6.56889e-05, No Iterations 10
time step continuity errors : sum local = 0.000156436, global = -1.58819e-16, cumulative = -1.89785e-15
DILUPBiCG:  Solving for epsilon, Initial residual = 0.0063798, Final residual = 5.15634e-06, No Iterations 2
DILUPBiCG:  Solving for k, Initial residual = 0.0209261, Final residual = 8.27523e-05, No Iterations 2
DICPCG:  Solving for G, Initial residual = 0.00307308, Final residual = 0.000294798, No Iterations 11
BiCG:  Solving for T+T, Initial residual = 0.00117479, Final residual = 8.22535e-05, No Iterations 3
ExecutionTime = 0.11 s



Wall heat fluxes [W]
movingWall -0.190504 6.90215e-16 0.193471 0.00296736
left 0.286227 -1.38744e-16 0.924843 1.21107
right -0.458721 -9.38975e-15 -1.36138 -1.8201
bottom -0.239736 0 0.243067 0.00333129
frontAndBack 0 0 0 0
sum -0.602734 -8.83828e-15 4.55129e-08 -0.602734


Wall heat fluxes [W]
topAndBottom 0 0 0 0
left 2.25163 0 0 2.25163
right -1.8614 0 0 -1.8614
frontAndBack 0 0 0 0
sum 0.390222 0 0 0.390222

Time = 45

DILUPBiCG:  Solving for Ux, Initial residual = 0.00647271, Final residual = 6.12875e-05, No Iterations 1
DILUPBiCG:  Solving for Uy, Initial residual = 0.00964682, Final residual = 1.04344e-06, No Iterations 2
DICPCG:  Solving for p_rgh, Initial residual = 0.0107426, Final residual = 0.000100991, No Iterations 5
time step continuity errors : sum local = 0.00031285, global = 4.92338e-17, cumulative = -1.84862e-15
DILUPBiCG:  Solving for epsilon, Initial residual = 0.00610285, Final residual = 4.80787e-06, No Iterations 2
DILUPBiCG:  Solving for k, Initial residual = 0.0198006, Final residual = 7.58464e-05, No Iterations 2
DICPCG:  Solving for G, Initial residual = 0.00304349, Final residual = 0.000245527, No Iterations 11
BiCG:  Solving for T+T, Initial residual = 0.0011782, Final residual = 0.000104836, No Iterations 1
ExecutionTime = 0.11 s



Wall heat fluxes [W]
movingWall -0.188525 -2.00284e-15 0.191371 0.00284591
left 0.290893 2.63614e-15 0.928668 1.21956
right -0.456918 1.62613e-15 -1.36028 -1.8172
bottom -0.237029 0 0.240242 0.00321335
frontAndBack 0 0 0 0
sum -0.591579 2.25943e-15 1.02213e-07 -0.591579


Wall heat fluxes [W]
topAndBottom 0 0 0 0
left 1.84363 0 0 1.84363
right -1.86043 0 0 -1.86043
frontAndBack 0 0 0 0
sum -0.0167954 0 0 -0.0167954

Time = 46

DILUPBiCG:  Solving for Ux, Initial residual = 0.00596645, Final residual = 2.34171e-06, No Iterations 2
DILUPBiCG:  Solving for Uy, Initial residual = 0.00961357, Final residual = 1.00249e-06, No Iterations 2
DICPCG:  Solving for p_rgh, Initial residual = 0.0107359, Final residual = 6.2001e-05, No Iterations 6
time step continuity errors : sum local = 0.000203575, global = -9.26442e-18, cumulative = -1.85788e-15
DILUPBiCG:  Solving for epsilon, Initial residual = 0.00579153, Final residual = 4.47306e-06, No Iterations 2
DILUPBiCG:  Solving for k, Initial residual = 0.0187817, Final residual = 6.86465e-05, No Iterations 2
DICPCG:  Solving for G, Initial residual = 0.00366088, Final residual = 0.000341047, No Iterations 12
BiCG:  Solving for T+T, Initial residual = 0.00113283, Final residual = 0.000105092, No Iterations 1
ExecutionTime = 0.11 s



Wall heat fluxes [W]
movingWall -0.187218 1.32501e-15 0.190387 0.00316897
left 0.295238 -5.54976e-16 0.933356 1.22859
right -0.454156 -2.0397e-15 -1.36227 -1.81643
bottom -0.234917 0 0.238528 0.00361138
frontAndBack 0 0 0 0
sum -0.581053 -1.26967e-15 2.46315e-08 -0.581053


Wall heat fluxes [W]
topAndBottom 0 0 0 0
left 1.84059 0 0 1.84059
right -1.85935 0 0 -1.85935
frontAndBack 0 0 0 0
sum -0.0187556 0 0 -0.0187556

Time = 47

DILUPBiCG:  Solving for Ux, Initial residual = 0.00635118, Final residual = 5.71348e-05, No Iterations 1
DILUPBiCG:  Solving for Uy, Initial residual = 0.00897445, Final residual = 9.82938e-07, No Iterations 2
DICPCG:  Solving for p_rgh, Initial residual = 0.0107335, Final residual = 4.86616e-05, No Iterations 6
time step continuity errors : sum local = 0.000155511, global = -1.87935e-17, cumulative = -1.87667e-15
DILUPBiCG:  Solving for epsilon, Initial residual = 0.0054711, Final residual = 4.16663e-06, No Iterations 2
DILUPBiCG:  Solving for k, Initial residual = 0.017961, Final residual = 6.14573e-05, No Iterations 2
DICPCG:  Solving for G, Initial residual = 0.00315194, Final residual = 0.000249773, No Iterations 11
BiCG:  Solving for T+T, Initial residual = 0.00112378, Final residual = 0.000110026, No Iterations 1
ExecutionTime = 0.12 s



Wall heat fluxes [W]
movingWall -0.185314 1.01602e-15 0.187978 0.00266396
left 0.2993 -1.80367e-15 0.937274 1.23657
right -0.451495 8.16586e-16 -1.36049 -1.81198
bottom -0.232274 0 0.235235 0.00296105
frontAndBack 0 0 0 0
sum -0.569783 2.89382e-17 5.17064e-08 -0.569783


Wall heat fluxes [W]
topAndBottom 0 0 0 0
left 1.85194 0 0 1.85194
right -1.85824 0 0 -1.85824
frontAndBack 0 0 0 0
sum -0.00629419 0 0 -0.00629419

Time = 48

DILUPBiCG:  Solving for Ux, Initial residual = 0.00623429, Final residual = 5.67309e-05, No Iterations 1
DILUPBiCG:  Solving for Uy, Initial residual = 0.00937618, Final residual = 9.46777e-07, No Iterations 2
DICPCG:  Solving for p_rgh, Initial residual = 0.0107981, Final residual = 3.32596e-05, No Iterations 6
time step continuity errors : sum local = 9.63313e-05, global = 1.34202e-16, cumulative = -1.74247e-15
DILUPBiCG:  Solving for epsilon, Initial residual = 0.0052534, Final residual = 3.89483e-06, No Iterations 2
DILUPBiCG:  Solving for k, Initial residual = 0.017122, Final residual = 5.63817e-05, No Iterations 2
DICPCG:  Solving for G, Initial residual = 0.00277162, Final residual = 0.00027592, No Iterations 11
BiCG:  Solving for T+T, Initial residual = 0.00111399, Final residual = 8.19756e-05, No Iterations 3
ExecutionTime = 0.12 s



Wall heat fluxes [W]
movingWall -0.183475 -1.34386e-15 0.186156 0.00268111
left 0.303108 2.28928e-15 0.940768 1.24388
right -0.448861 5.30517e-15 -1.35975 -1.80861
bottom -0.22985 0 0.232822 0.00297168
frontAndBack 0 0 0 0
sum -0.559078 6.25059e-15 8.84286e-08 -0.559078


Wall heat fluxes [W]
topAndBottom 0 0 0 0
left 2.22121 0 0 2.22121
right -1.84774 0 0 -1.84774
frontAndBack 0 0 0 0
sum 0.373471 0 0 0.373471

Time = 49

DILUPBiCG:  Solving for Ux, Initial residual = 0.0062, Final residual = 5.6532e-05, No Iterations 1
DILUPBiCG:  Solving for Uy, Initial residual = 0.00883642, Final residual = 9.16449e-07, No Iterations 2
DICPCG:  Solving for p_rgh, Initial residual = 0.0104736, Final residual = 9.48406e-05, No Iterations 6
time step continuity errors : sum local = 0.000354219, global = 1.37908e-16, cumulative = -1.60457e-15
DILUPBiCG:  Solving for epsilon, Initial residual = 0.00502457, Final residual = 3.63936e-06, No Iterations 2
DILUPBiCG:  Solving for k, Initial residual = 0.0162796, Final residual = 5.21854e-05, No Iterations 2
DICPCG:  Solving for G, Initial residual = 0.00276972, Final residual = 0.000233878, No Iterations 11
BiCG:  Solving for T+T, Initial residual = 0.00112297, Final residual = 0.000100368, No Iterations 1
ExecutionTime = 0.12 s



Wall heat fluxes [W]
movingWall -0.181714 6.91026e-16 0.18428 0.00256645
left 0.306828 2.77488e-16 0.944243 1.25107
right -0.446887 5.73255e-15 -1.35889 -1.80578
bottom -0.227562 0 0.230368 0.00280567
frontAndBack 0 0 0 0
sum -0.549335 6.70107e-15 1.57556e-07 -0.549334


Wall heat fluxes [W]
topAndBottom 0 0 0 0
left 1.83003 0 0 1.83003
right -1.84682 0 0 -1.84682
frontAndBack 0 0 0 0
sum -0.0167961 0 0 -0.0167961

Time = 50

DILUPBiCG:  Solving for Ux, Initial residual = 0.00571897, Final residual = 5.6273e-05, No Iterations 1
DILUPBiCG:  Solving for Uy, Initial residual = 0.00875002, Final residual = 8.68646e-07, No Iterations 2
DICPCG:  Solving for p_rgh, Initial residual = 0.0105734, Final residual = 3.4872e-05, No Iterations 11
time step continuity errors : sum local = 8.96063e-05, global = 2.18045e-16, cumulative = -1.38652e-15
DILUPBiCG:  Solving for epsilon, Initial residual = 0.00478164, Final residual = 3.38395e-06, No Iterations 2
DILUPBiCG:  Solving for k, Initial residual = 0.0154532, Final residual = 4.8441e-05, No Iterations 2
DICPCG:  Solving for G, Initial residual = 0.0033516, Final residual = 0.00030193, No Iterations 12
BiCG:  Solving for T+T, Initial residual = 0.00107504, Final residual = 0.000101278, No Iterations 1
ExecutionTime = 0.12 s



Wall heat fluxes [W]
movingWall -0.180539 -3.38602e-16 0.183451 0.00291233
left 0.31047 3.26048e-15 0.948527 1.259
right -0.44402 4.91435e-15 -1.36104 -1.80506
bottom -0.225898 0 0.229065 0.0031671
frontAndBack 0 0 0 0
sum -0.539987 7.83623e-15 3.36859e-08 -0.539987


Wall heat fluxes [W]
topAndBottom 0 0 0 0
left 1.82732 0 0 1.82732
right -1.8458 0 0 -1.8458
frontAndBack 0 0 0 0
sum -0.0184785 0 0 -0.0184785

Time = 51

DILUPBiCG:  Solving for Ux, Initial residual = 0.00609569, Final residual = 5.39975e-05, No Iterations 1
DILUPBiCG:  Solving for Uy, Initial residual = 0.00810653, Final residual = 8.40325e-07, No Iterations 2
DICPCG:  Solving for p_rgh, Initial residual = 0.0109463, Final residual = 9.36061e-05, No Iterations 6
time step continuity errors : sum local = 0.000364382, global = 1.66627e-16, cumulative = -1.21989e-15
DILUPBiCG:  Solving for epsilon, Initial residual = 0.00453022, Final residual = 3.13648e-06, No Iterations 2
DILUPBiCG:  Solving for k, Initial residual = 0.0146298, Final residual = 4.53727e-05, No Iterations 2
DICPCG:  Solving for G, Initial residual = 0.00284435, Final residual = 0.00025202, No Iterations 11
BiCG:  Solving for T+T, Initial residual = 0.00106716, Final residual = 0.000106628, No Iterations 1
ExecutionTime = 0.12 s



Wall heat fluxes [W]
movingWall -0.178742 2.16599e-17 0.181184 0.00244249
left 0.314093 1.10995e-15 0.952073 1.26617
right -0.441289 5.74268e-15 -1.35955 -1.80083
bottom -0.223805 0 0.226288 0.00248352
frontAndBack 0 0 0 0
sum -0.529743 6.87429e-15 5.27561e-08 -0.529743


Wall heat fluxes [W]
topAndBottom 0 0 0 0
left 1.83856 0 0 1.83856
right -1.84475 0 0 -1.84475
frontAndBack 0 0 0 0
sum -0.0061806 0 0 -0.0061806

Time = 52

DILUPBiCG:  Solving for Ux, Initial residual = 0.00600519, Final residual = 5.38165e-05, No Iterations 1
DILUPBiCG:  Solving for Uy, Initial residual = 0.00841296, Final residual = 1.11726e-06, No Iterations 2
DICPCG:  Solving for p_rgh, Initial residual = 0.0112468, Final residual = 4.54801e-05, No Iterations 11
time step continuity errors : sum local = 0.000121016, global = -2.46169e-17, cumulative = -1.24451e-15
DILUPBiCG:  Solving for epsilon, Initial residual = 0.00426766, Final residual = 2.90699e-06, No Iterations 2
DILUPBiCG:  Solving for k, Initial residual = 0.0138202, Final residual = 4.29412e-05, No Iterations 2
DICPCG:  Solving for G, Initial residual = 0.00248803, Final residual = 0.000245757, No Iterations 11
BiCG:  Solving for T+T, Initial residual = 0.0010569, Final residual = 8.2469e-05, No Iterations 3
ExecutionTime = 0.13 s



Wall heat fluxes [W]
movingWall -0.176954 -1.34235e-15 0.179427 0.00247325
left 0.317633 -2.63614e-15 0.955188 1.27282
right -0.438629 4.90793e-15 -1.35907 -1.7977
bottom -0.221952 0 0.224451 0.00249947
frontAndBack 0 0 0 0
sum -0.519901 9.29448e-16 1.07204e-07 -0.519901


Wall heat fluxes [W]
topAndBottom 0 0 0 0
left 2.19 0 0 2.19
right -1.83482 0 0 -1.83482
frontAndBack 0 0 0 0
sum 0.35518 0 0 0.35518

Time = 53

DILUPBiCG:  Solving for Ux, Initial residual = 0.00589343, Final residual = 5.20542e-05, No Iterations 1
DILUPBiCG:  Solving for Uy, Initial residual = 0.00797852, Final residual = 1.9595e-06, No Iterations 2
DICPCG:  Solving for p_rgh, Initial residual = 0.0113683, Final residual = 5.7556e-05, No Iterations 11
time step continuity errors : sum local = 0.000154838, global = 1.25734e-17, cumulative = -1.23194e-15
DILUPBiCG:  Solving for epsilon, Initial residual = 0.0040091, Final residual = 2.69424e-06, No Iterations 2
DILUPBiCG:  Solving for k, Initial residual = 0.0130332, Final residual = 4.1511e-05, No Iterations 2
DICPCG:  Solving for G, Initial residual = 0.00247254, Final residual = 0.000177655, No Iterations 11
BiCG:  Solving for T+T, Initial residual = 0.00106805, Final residual = 9.78025e-05, No Iterations 1
ExecutionTime = 0.13 s



Wall heat fluxes [W]
movingWall -0.17522 -3.63234e-16 0.177594 0.00237403
left 0.321205 1.10995e-15 0.95829 1.27949
right -0.436644 -2.12431e-18 -1.35845 -1.7951
bottom -0.220265 0 0.222568 0.00230252
frontAndBack 0 0 0 0
sum -0.510925 7.44594e-16 3.71908e-08 -0.510925


Wall heat fluxes [W]
topAndBottom 0 0 0 0
left 1.81745 0 0 1.81745
right -1.83395 0 0 -1.83395
frontAndBack 0 0 0 0
sum -0.0164927 0 0 -0.0164927

Time = 54

DILUPBiCG:  Solving for Ux, Initial residual = 0.00544344, Final residual = 5.0353e-05, No Iterations 1
DILUPBiCG:  Solving for Uy, Initial residual = 0.0078941, Final residual = 7.86901e-06, No Iterations 2
DICPCG:  Solving for p_rgh, Initial residual = 0.0118698, Final residual = 0.000115411, No Iterations 6
time step continuity errors : sum local = 0.000447989, global = 1.21497e-16, cumulative = -1.11044e-15
DILUPBiCG:  Solving for epsilon, Initial residual = 0.00384723, Final residual = 2.49754e-06, No Iterations 2
DILUPBiCG:  Solving for k, Initial residual = 0.0122532, Final residual = 3.90112e-05, No Iterations 2
DICPCG:  Solving for G, Initial residual = 0.00300224, Final residual = 0.000278115, No Iterations 12
BiCG:  Solving for T+T, Initial residual = 0.00101931, Final residual = 9.83534e-05, No Iterations 1
ExecutionTime = 0.13 s



Wall heat fluxes [W]
movingWall -0.174017 -1.3247e-15 0.176724 0.00270664
left 0.324843 3.05237e-15 0.962145 1.28699
right -0.433869 2.03912e-15 -1.36071 -1.79458
bottom -0.2192 0 0.221841 0.00264023
frontAndBack 0 0 0 0
sum -0.502244 3.7668e-15 3.7059e-09 -0.502244


Wall heat fluxes [W]
topAndBottom 0 0 0 0
left 1.81484 0 0 1.81484
right -1.83297 0 0 -1.83297
frontAndBack 0 0 0 0
sum -0.0181378 0 0 -0.0181378

Time = 55

DILUPBiCG:  Solving for Ux, Initial residual = 0.00591392, Final residual = 5.2559e-05, No Iterations 1
DILUPBiCG:  Solving for Uy, Initial residual = 0.00728274, Final residual = 2.64294e-06, No Iterations 2
DICPCG:  Solving for p_rgh, Initial residual = 0.0133104, Final residual = 5.78088e-05, No Iterations 11
time step continuity errors : sum local = 0.000154231, global = -1.58819e-18, cumulative = -1.11203e-15
DILUPBiCG:  Solving for epsilon, Initial residual = 0.00362042, Final residual = 2.26887e-06, No Iterations 2
DILUPBiCG:  Solving for k, Initial residual = 0.0115352, Final residual = 3.61996e-05, No Iterations 2
DICPCG:  Solving for G, Initial residual = 0.00252266, Final residual = 0.00023624, No Iterations 11
BiCG:  Solving for T+T, Initial residual = 0.00100973, Final residual = 7.4064e-05, No Iterations 3
ExecutionTime = 0.13 s



Wall heat fluxes [W]
movingWall -0.172163 6.71431e-16 0.174465 0.00230237
left 0.32843 -6.24348e-16 0.965287 1.29372
right -0.431345 1.2271e-15 -1.35946 -1.79081
bottom -0.217657 0 0.219712 0.00205493
frontAndBack 0 0 0 0
sum -0.492735 1.27418e-15 -5.41714e-09 -0.492735


Wall heat fluxes [W]
topAndBottom 0 0 0 0
left 2.13811 0 0 2.13811
right -1.82325 0 0 -1.82325
frontAndBack 0 0 0 0
sum 0.314855 0 0 0.314855

Time = 56

DILUPBiCG:  Solving for Ux, Initial residual = 0.00571068, Final residual = 5.02771e-05, No Iterations 1
DILUPBiCG:  Solving for Uy, Initial residual = 0.00754587, Final residual = 2.12467e-06, No Iterations 2
DICPCG:  Solving for p_rgh, Initial residual = 0.0141679, Final residual = 6.12245e-05, No Iterations 11
time step continuity errors : sum local = 0.000164264, global = 1.87671e-16, cumulative = -9.24357e-16
DILUPBiCG:  Solving for epsilon, Initial residual = 0.00331605, Final residual = 2.06044e-06, No Iterations 2
DILUPBiCG:  Solving for k, Initial residual = 0.0107548, Final residual = 3.43794e-05, No Iterations 2
DICPCG:  Solving for G, Initial residual = 0.00222823, Final residual = 0.000144654, No Iterations 12
BiCG:  Solving for T+T, Initial residual = 0.00101678, Final residual = 9.02302e-05, No Iterations 1
ExecutionTime = 0.13 s



Wall heat fluxes [W]
movingWall -0.170417 -3.4309e-16 0.172654 0.00223702
left 0.332072 9.71208e-16 0.968068 1.30014
right -0.429408 7.37872e-15 -1.35912 -1.78853
bottom -0.21638 0 0.218396 0.00201568
frontAndBack 0 0 0 0
sum -0.484134 8.00684e-15 1.05549e-07 -0.484134


Wall heat fluxes [W]
topAndBottom 0 0 0 0
left 1.80776 0 0 1.80776
right -1.8225 0 0 -1.8225
frontAndBack 0 0 0 0
sum -0.0147372 0 0 -0.0147372

Time = 57

DILUPBiCG:  Solving for Ux, Initial residual = 0.00530131, Final residual = 4.90445e-05, No Iterations 1
DILUPBiCG:  Solving for Uy, Initial residual = 0.00743242, Final residual = 4.60057e-06, No Iterations 2
DICPCG:  Solving for p_rgh, Initial residual = 0.0148363, Final residual = 9.90927e-05, No Iterations 6
time step continuity errors : sum local = 0.000406631, global = -3.75871e-17, cumulative = -9.61944e-16
DILUPBiCG:  Solving for epsilon, Initial residual = 0.00301761, Final residual = 1.86123e-06, No Iterations 2
DILUPBiCG:  Solving for k, Initial residual = 0.00998157, Final residual = 3.39066e-05, No Iterations 2
DICPCG:  Solving for G, Initial residual = 0.00269674, Final residual = 0.000244046, No Iterations 12
BiCG:  Solving for T+T, Initial residual = 0.000971824, Final residual = 9.1103e-05, No Iterations 1
ExecutionTime = 0.14 s



Wall heat fluxes [W]
movingWall -0.16915 -5.7591e-18 0.171687 0.00253697
left 0.33579 2.08116e-15 0.971554 1.30734
right -0.426802 -5.74475e-15 -1.36111 -1.78791
bottom -0.215584 0 0.21787 0.00228624
frontAndBack 0 0 0 0
sum -0.475746 -3.66935e-15 3.32499e-08 -0.475746


Wall heat fluxes [W]
topAndBottom 0 0 0 0
left 1.80614 0 0 1.80614
right -1.82166 0 0 -1.82166
frontAndBack 0 0 0 0
sum -0.0155194 0 0 -0.0155194

Time = 58

DILUPBiCG:  Solving for Ux, Initial residual = 0.00564242, Final residual = 5.09617e-05, No Iterations 1
DILUPBiCG:  Solving for Uy, Initial residual = 0.00678518, Final residual = 1.96275e-05, No Iterations 2
DICPCG:  Solving for p_rgh, Initial residual = 0.0152671, Final residual = 5.49725e-05, No Iterations 11
time step continuity errors : sum local = 0.000145008, global = -2.96197e-16, cumulative = -1.25814e-15
DILUPBiCG:  Solving for epsilon, Initial residual = 0.00279847, Final residual = 1.69154e-06, No Iterations 2
DILUPBiCG:  Solving for k, Initial residual = 0.00928661, Final residual = 3.45687e-05, No Iterations 2
DICPCG:  Solving for G, Initial residual = 0.0022769, Final residual = 0.000203342, No Iterations 11
BiCG:  Solving for T+T, Initial residual = 0.000962105, Final residual = 9.54745e-05, No Iterations 1
ExecutionTime = 0.14 s



Wall heat fluxes [W]
movingWall -0.167342 3.49339e-16 0.169475 0.00213319
left 0.339491 -1.38744e-15 0.974403 1.31389
right -0.424382 -1.31069e-14 -1.36003 -1.78442
bottom -0.214384 0 0.216156 0.00177183
frontAndBack 0 0 0 0
sum -0.466617 -1.4145e-14 -4.62321e-08 -0.466617


Wall heat fluxes [W]
topAndBottom 0 0 0 0
left 1.8157 0 0 1.8157
right -1.82081 0 0 -1.82081
frontAndBack 0 0 0 0
sum -0.00510983 0 0 -0.00510983

Time = 59

DILUPBiCG:  Solving for Ux, Initial residual = 0.00544255, Final residual = 4.88245e-05, No Iterations 1
DILUPBiCG:  Solving for Uy, Initial residual = 0.00726705, Final residual = 2.36811e-06, No Iterations 2
DICPCG:  Solving for p_rgh, Initial residual = 0.0153273, Final residual = 0.000122376, No Iterations 6
time step continuity errors : sum local = 0.000492269, global = 2.63664e-19, cumulative = -1.25788e-15
DILUPBiCG:  Solving for epsilon, Initial residual = 0.0026662, Final residual = 1.56506e-06, No Iterations 2
DILUPBiCG:  Solving for k, Initial residual = 0.00865189, Final residual = 3.85433e-05, No Iterations 2
DICPCG:  Solving for G, Initial residual = 0.00200361, Final residual = 0.000154414, No Iterations 12
BiCG:  Solving for T+T, Initial residual = 0.000952766, Final residual = 7.68467e-05, No Iterations 3
ExecutionTime = 0.14 s



Wall heat fluxes [W]
movingWall -0.165554 1.34637e-15 0.167728 0.00217392
left 0.3432 -3.4686e-16 0.97691 1.32011
right -0.422094 1.22742e-15 -1.35977 -1.78186
bottom -0.213323 0 0.21513 0.00180692
frontAndBack 0 0 0 0
sum -0.457771 2.22693e-15 7.0918e-08 -0.457771


Wall heat fluxes [W]
topAndBottom 0 0 0 0
left 2.10718 0 0 2.10718
right -1.81274 0 0 -1.81274
frontAndBack 0 0 0 0
sum 0.29444 0 0 0.29444

Time = 60

DILUPBiCG:  Solving for Ux, Initial residual = 0.0052999, Final residual = 4.81678e-05, No Iterations 1
DILUPBiCG:  Solving for Uy, Initial residual = 0.00688216, Final residual = 2.09185e-06, No Iterations 2
DICPCG:  Solving for p_rgh, Initial residual = 0.0149524, Final residual = 5.40549e-05, No Iterations 11
time step continuity errors : sum local = 0.000143407, global = 6.32628e-17, cumulative = -1.19461e-15
DILUPBiCG:  Solving for epsilon, Initial residual = 0.00253949, Final residual = 1.45744e-06, No Iterations 2
DILUPBiCG:  Solving for k, Initial residual = 0.00811048, Final residual = 4.24679e-05, No Iterations 2
DICPCG:  Solving for G, Initial residual = 0.00197097, Final residual = 0.000194407, No Iterations 11
BiCG:  Solving for T+T, Initial residual = 0.000963038, Final residual = 8.75914e-05, No Iterations 1
ExecutionTime = 0.14 s



Wall heat fluxes [W]
movingWall -0.163813 2.37904e-17 0.165903 0.00209007
left 0.346911 2.77488e-16 0.979419 1.32633
right -0.420413 3.68856e-15 -1.35935 -1.77977
bottom -0.212329 0 0.214033 0.00170439
frontAndBack 0 0 0 0
sum -0.449643 3.98984e-15 -3.88281e-08 -0.449643


Wall heat fluxes [W]
topAndBottom 0 0 0 0
left 1.79804 0 0 1.79804
right -1.81201 0 0 -1.81201
frontAndBack 0 0 0 0
sum -0.0139719 0 0 -0.0139719

Time = 61

DILUPBiCG:  Solving for Ux, Initial residual = 0.00485587, Final residual = 4.56509e-05, No Iterations 1
DILUPBiCG:  Solving for Uy, Initial residual = 0.00689933, Final residual = 2.35999e-06, No Iterations 2
DICPCG:  Solving for p_rgh, Initial residual = 0.014566, Final residual = 0.000100377, No Iterations 6
time step continuity errors : sum local = 0.000409789, global = 5.37337e-17, cumulative = -1.14088e-15
DILUPBiCG:  Solving for epsilon, Initial residual = 0.00244314, Final residual = 1.42669e-06, No Iterations 2
DILUPBiCG:  Solving for k, Initial residual = 0.00762205, Final residual = 4.7119e-05, No Iterations 2
DICPCG:  Solving for G, Initial residual = 0.00248944, Final residual = 0.000221996, No Iterations 12
[...]
bottom -0.156471 0 0.156471 1.03721e-11
frontAndBack 0 0 0 0
sum -2.13546e-09 -1.10859e-15 3.21687e-13 -2.13513e-09


Wall heat fluxes [W]
topAndBottom 0 0 0 0
left 1.67373 0 0 1.67373
right -1.67373 0 0 -1.67373
frontAndBack 0 0 0 0
sum -6.41212e-11 0 0 -6.41212e-11

Time = 986

DILUPBiCG:  Solving for Ux, Initial residual = 2.24738e-11, Final residual = 4.87259e-15, No Iterations 2
DILUPBiCG:  Solving for Uy, Initial residual = 2.74144e-11, Final residual = 8.56826e-15, No Iterations 2
DICPCG:  Solving for p_rgh, Initial residual = 3.38388e-11, Final residual = 1.85337e-13, No Iterations 10
time step continuity errors : sum local = 5.74257e-13, global = -1.35525e-16, cumulative = -2.18935e-15
DILUPBiCG:  Solving for epsilon, Initial residual = 2.40005e-11, Final residual = 2.27733e-15, No Iterations 3
DILUPBiCG:  Solving for k, Initial residual = 4.84363e-11, Final residual = 8.35208e-15, No Iterations 3
DICPCG:  Solving for G, Initial residual = 1.16577e-11, Final residual = 6.90132e-13, No Iterations 11
BiCG:  Solving for T+T, Initial residual = 5.14018e-12, Final residual = 5.06751e-13, No Iterations 2
ExecutionTime = 2.1 s



Wall heat fluxes [W]
movingWall -0.0645481 6.64517e-17 0.0645481 1.18855e-11
left 0.54176 -8.32464e-16 1.13197 1.67373
right -0.320741 -3.3137e-15 -1.35298 -1.67373
bottom -0.156471 0 0.156471 8.67686e-12
frontAndBack 0 0 0 0
sum -2.09027e-09 -4.07972e-15 2.37532e-13 -2.09004e-09


Wall heat fluxes [W]
topAndBottom 0 0 0 0
left 1.67373 0 0 1.67373
right -1.67373 0 0 -1.67373
frontAndBack 0 0 0 0
sum 3.44629e-10 0 0 3.44629e-10

Time = 987

DILUPBiCG:  Solving for Ux, Initial residual = 2.20133e-11, Final residual = 4.77174e-15, No Iterations 2
DILUPBiCG:  Solving for Uy, Initial residual = 2.8604e-11, Final residual = 6.1005e-15, No Iterations 2
DICPCG:  Solving for p_rgh, Initial residual = 3.96372e-11, Final residual = 2.45283e-13, No Iterations 10
time step continuity errors : sum local = 7.57265e-13, global = -5.61159e-17, cumulative = -2.24546e-15
DILUPBiCG:  Solving for epsilon, Initial residual = 2.34175e-11, Final residual = 2.25546e-15, No Iterations 3
DILUPBiCG:  Solving for k, Initial residual = 4.72323e-11, Final residual = 8.18709e-15, No Iterations 3
DICPCG:  Solving for G, Initial residual = 1.04998e-11, Final residual = 7.92347e-13, No Iterations 11
BiCG:  Solving for T+T, Initial residual = 5.16273e-12, Final residual = 5.07595e-13, No Iterations 3
ExecutionTime = 2.1 s



Wall heat fluxes [W]
movingWall -0.0645481 1.68125e-15 0.0645481 1.20413e-11
left 0.54176 -6.9372e-16 1.13197 1.67373
right -0.320741 -4.56262e-15 -1.35298 -1.67373
bottom -0.156471 0 0.156471 8.54716e-12
frontAndBack 0 0 0 0
sum -2.04663e-09 -3.57509e-15 4.48974e-13 -2.04618e-09


Wall heat fluxes [W]
topAndBottom 0 0 0 0
left 1.67373 0 0 1.67373
right -1.67373 0 0 -1.67373
frontAndBack 0 0 0 0
sum 1.04797e-09 0 0 1.04797e-09

Time = 988

DILUPBiCG:  Solving for Ux, Initial residual = 2.11479e-11, Final residual = 4.71127e-15, No Iterations 2
DILUPBiCG:  Solving for Uy, Initial residual = 2.75894e-11, Final residual = 6.69197e-15, No Iterations 2
DICPCG:  Solving for p_rgh, Initial residual = 3.71981e-11, Final residual = 2.19534e-13, No Iterations 10
time step continuity errors : sum local = 6.79049e-13, global = 1.37113e-16, cumulative = -2.10835e-15
DILUPBiCG:  Solving for epsilon, Initial residual = 2.29482e-11, Final residual = 2.2122e-15, No Iterations 3
DILUPBiCG:  Solving for k, Initial residual = 4.62301e-11, Final residual = 8.02044e-15, No Iterations 3
DICPCG:  Solving for G, Initial residual = 1.10387e-11, Final residual = 8.65683e-13, No Iterations 12
BiCG:  Solving for T+T, Initial residual = 5.13611e-12, Final residual = 4.7702e-13, No Iterations 1
ExecutionTime = 2.11 s



Wall heat fluxes [W]
movingWall -0.0645481 1.55545e-16 0.0645481 1.20568e-11
left 0.54176 5.54976e-16 1.13197 1.67373
right -0.320741 4.14616e-15 -1.35298 -1.67373
bottom -0.156471 0 0.156471 8.77942e-12
frontAndBack 0 0 0 0
sum -2.00506e-09 4.85668e-15 3.09586e-13 -2.00474e-09


Wall heat fluxes [W]
topAndBottom 0 0 0 0
left 1.67373 0 0 1.67373
right -1.67373 0 0 -1.67373
frontAndBack 0 0 0 0
sum -4.3703e-11 0 0 -4.3703e-11

Time = 989

DILUPBiCG:  Solving for Ux, Initial residual = 1.98622e-11, Final residual = 4.523e-15, No Iterations 2
DILUPBiCG:  Solving for Uy, Initial residual = 2.70279e-11, Final residual = 7.46713e-15, No Iterations 2
DICPCG:  Solving for p_rgh, Initial residual = 3.23734e-11, Final residual = 1.58163e-13, No Iterations 10
time step continuity errors : sum local = 4.87823e-13, global = -3.65283e-17, cumulative = -2.14488e-15
DILUPBiCG:  Solving for epsilon, Initial residual = 2.25776e-11, Final residual = 2.14623e-15, No Iterations 3
DILUPBiCG:  Solving for k, Initial residual = 4.54593e-11, Final residual = 7.84223e-15, No Iterations 3
DICPCG:  Solving for G, Initial residual = 1.25687e-11, Final residual = 1.09653e-12, No Iterations 12
BiCG:  Solving for T+T, Initial residual = 4.80276e-12, Final residual = 4.79371e-13, No Iterations 1
ExecutionTime = 2.11 s



Wall heat fluxes [W]
movingWall -0.0645481 1.21718e-15 0.0645481 1.26658e-11
left 0.54176 -4.16232e-15 1.13197 1.67373
right -0.320741 2.07427e-15 -1.35298 -1.67373
bottom -0.156471 0 0.156471 9.53754e-12
frontAndBack 0 0 0 0
sum -1.96414e-09 -8.70871e-16 3.78281e-13 -1.96376e-09


Wall heat fluxes [W]
topAndBottom 0 0 0 0
left 1.67373 0 0 1.67373
right -1.67373 0 0 -1.67373
frontAndBack 0 0 0 0
sum -5.90397e-11 0 0 -5.90397e-11

Time = 990

DILUPBiCG:  Solving for Ux, Initial residual = 2.06708e-11, Final residual = 4.48159e-15, No Iterations 2
DILUPBiCG:  Solving for Uy, Initial residual = 2.52204e-11, Final residual = 7.87356e-15, No Iterations 2
DICPCG:  Solving for p_rgh, Initial residual = 3.11239e-11, Final residual = 1.70347e-13, No Iterations 10
time step continuity errors : sum local = 5.27828e-13, global = -1.30231e-16, cumulative = -2.27511e-15
DILUPBiCG:  Solving for epsilon, Initial residual = 2.20746e-11, Final residual = 2.09464e-15, No Iterations 3
DILUPBiCG:  Solving for k, Initial residual = 4.45497e-11, Final residual = 7.68179e-15, No Iterations 3
DICPCG:  Solving for G, Initial residual = 1.08232e-11, Final residual = 6.96793e-13, No Iterations 11
BiCG:  Solving for T+T, Initial residual = 4.72793e-12, Final residual = 4.66717e-13, No Iterations 2
ExecutionTime = 2.11 s



Wall heat fluxes [W]
movingWall -0.0645481 1.53976e-16 0.0645481 1.09333e-11
left 0.54176 -1.10995e-15 1.13197 1.67373
right -0.320741 -4.97481e-15 -1.35298 -1.67373
bottom -0.156471 0 0.156471 7.98203e-12
frontAndBack 0 0 0 0
sum -1.92258e-09 -5.93079e-15 3.07615e-13 -1.92228e-09


Wall heat fluxes [W]
topAndBottom 0 0 0 0
left 1.67373 0 0 1.67373
right -1.67373 0 0 -1.67373
frontAndBack 0 0 0 0
sum 3.17741e-10 0 0 3.17741e-10

Time = 991

DILUPBiCG:  Solving for Ux, Initial residual = 2.02471e-11, Final residual = 4.38873e-15, No Iterations 2
DILUPBiCG:  Solving for Uy, Initial residual = 2.63094e-11, Final residual = 5.61052e-15, No Iterations 2
DICPCG:  Solving for p_rgh, Initial residual = 3.64658e-11, Final residual = 2.25812e-13, No Iterations 10
time step continuity errors : sum local = 6.973e-13, global = -1.91641e-16, cumulative = -2.46675e-15
DILUPBiCG:  Solving for epsilon, Initial residual = 2.15385e-11, Final residual = 2.07452e-15, No Iterations 3
DILUPBiCG:  Solving for k, Initial residual = 4.3442e-11, Final residual = 7.53009e-15, No Iterations 3
DICPCG:  Solving for G, Initial residual = 9.79593e-12, Final residual = 6.95835e-13, No Iterations 11
BiCG:  Solving for T+T, Initial residual = 4.74891e-12, Final residual = 4.66724e-13, No Iterations 3
ExecutionTime = 2.11 s



Wall heat fluxes [W]
movingWall -0.0645481 4.4344e-16 0.0645481 1.10987e-11
left 0.54176 -4.99478e-15 1.13197 1.67373
right -0.320741 -2.48533e-15 -1.35298 -1.67373
bottom -0.156471 0 0.156471 7.88875e-12
frontAndBack 0 0 0 0
sum -1.88249e-09 -7.03667e-15 7.05241e-13 -1.8818e-09


Wall heat fluxes [W]
topAndBottom 0 0 0 0
left 1.67373 0 0 1.67373
right -1.67373 0 0 -1.67373
frontAndBack 0 0 0 0
sum 9.62437e-10 0 0 9.62437e-10

Time = 992

DILUPBiCG:  Solving for Ux, Initial residual = 1.94479e-11, Final residual = 4.33304e-15, No Iterations 2
DILUPBiCG:  Solving for Uy, Initial residual = 2.53491e-11, Final residual = 6.16864e-15, No Iterations 2
DICPCG:  Solving for p_rgh, Initial residual = 3.42076e-11, Final residual = 2.02333e-13, No Iterations 10
time step continuity errors : sum local = 6.25848e-13, global = -3.73753e-16, cumulative = -2.8405e-15
DILUPBiCG:  Solving for epsilon, Initial residual = 2.1107e-11, Final residual = 2.03475e-15, No Iterations 3
DILUPBiCG:  Solving for k, Initial residual = 4.25204e-11, Final residual = 7.37684e-15, No Iterations 3
DICPCG:  Solving for G, Initial residual = 1.02665e-11, Final residual = 8.07975e-13, No Iterations 12
BiCG:  Solving for T+T, Initial residual = 4.72351e-12, Final residual = 4.38536e-13, No Iterations 1
ExecutionTime = 2.11 s



Wall heat fluxes [W]
movingWall -0.0645481 -1.94213e-16 0.0645481 1.1068e-11
left 0.54176 -1.1377e-14 1.13197 1.67373
right -0.320741 -1.65874e-15 -1.35298 -1.67373
bottom -0.156471 0 0.156471 8.04862e-12
frontAndBack 0 0 0 0
sum -1.8442e-09 -1.323e-14 3.44003e-13 -1.84387e-09


Wall heat fluxes [W]
topAndBottom 0 0 0 0
left 1.67373 0 0 1.67373
right -1.67373 0 0 -1.67373
frontAndBack 0 0 0 0
sum -4.00533e-11 0 0 -4.00533e-11

Time = 993

DILUPBiCG:  Solving for Ux, Initial residual = 1.82724e-11, Final residual = 4.16014e-15, No Iterations 2
DILUPBiCG:  Solving for Uy, Initial residual = 2.48884e-11, Final residual = 6.8515e-15, No Iterations 2
DICPCG:  Solving for p_rgh, Initial residual = 2.9781e-11, Final residual = 1.45456e-13, No Iterations 10
time step continuity errors : sum local = 4.48619e-13, global = 2.42463e-16, cumulative = -2.59804e-15
DILUPBiCG:  Solving for epsilon, Initial residual = 2.07659e-11, Final residual = 1.97398e-15, No Iterations 3
DILUPBiCG:  Solving for k, Initial residual = 4.18115e-11, Final residual = 7.21303e-15, No Iterations 3
DICPCG:  Solving for G, Initial residual = 1.14606e-11, Final residual = 1.00455e-12, No Iterations 12
BiCG:  Solving for T+T, Initial residual = 4.41755e-12, Final residual = 4.40958e-13, No Iterations 1
ExecutionTime = 2.12 s



Wall heat fluxes [W]
movingWall -0.0645481 -6.18001e-16 0.0645481 1.16666e-11
left 0.54176 6.52097e-15 1.13197 1.67373
right -0.320741 1.65828e-15 -1.35298 -1.67373
bottom -0.156471 0 0.156471 8.79613e-12
frontAndBack 0 0 0 0
sum -1.8066e-09 7.56124e-15 6.06293e-13 -1.80599e-09


Wall heat fluxes [W]
topAndBottom 0 0 0 0
left 1.67373 0 0 1.67373
right -1.67373 0 0 -1.67373
frontAndBack 0 0 0 0
sum -5.43325e-11 0 0 -5.43325e-11

Time = 994

DILUPBiCG:  Solving for Ux, Initial residual = 1.90106e-11, Final residual = 4.12181e-15, No Iterations 2
DILUPBiCG:  Solving for Uy, Initial residual = 2.3175e-11, Final residual = 7.26146e-15, No Iterations 2
DICPCG:  Solving for p_rgh, Initial residual = 2.86172e-11, Final residual = 1.56735e-13, No Iterations 10
time step continuity errors : sum local = 4.85781e-13, global = 7.88799e-17, cumulative = -2.51916e-15
DILUPBiCG:  Solving for epsilon, Initial residual = 2.03035e-11, Final residual = 1.9266e-15, No Iterations 3
DILUPBiCG:  Solving for k, Initial residual = 4.09752e-11, Final residual = 7.0656e-15, No Iterations 3
DICPCG:  Solving for G, Initial residual = 9.89384e-12, Final residual = 5.07987e-13, No Iterations 11
BiCG:  Solving for T+T, Initial residual = 4.34903e-12, Final residual = 4.29621e-13, No Iterations 2
ExecutionTime = 2.12 s



Wall heat fluxes [W]
movingWall -0.0645481 1.3938e-15 0.0645481 1.00293e-11
left 0.54176 3.32986e-15 1.13197 1.67373
right -0.320741 -1.24247e-15 -1.35298 -1.67373
bottom -0.156471 0 0.156471 7.30846e-12
frontAndBack 0 0 0 0
sum -1.76832e-09 3.48119e-15 2.73864e-13 -1.76804e-09


Wall heat fluxes [W]
topAndBottom 0 0 0 0
left 1.67373 0 0 1.67373
right -1.67373 0 0 -1.67373
frontAndBack 0 0 0 0
sum 2.92367e-10 0 0 2.92367e-10

Time = 995

DILUPBiCG:  Solving for Ux, Initial residual = 1.86246e-11, Final residual = 4.03688e-15, No Iterations 2
DILUPBiCG:  Solving for Uy, Initial residual = 2.42338e-11, Final residual = 5.14704e-15, No Iterations 2
DICPCG:  Solving for p_rgh, Initial residual = 3.35513e-11, Final residual = 2.07752e-13, No Iterations 10
time step continuity errors : sum local = 6.40318e-13, global = 1.79995e-17, cumulative = -2.50116e-15
DILUPBiCG:  Solving for epsilon, Initial residual = 1.98103e-11, Final residual = 1.90805e-15, No Iterations 3
DILUPBiCG:  Solving for k, Initial residual = 3.99565e-11, Final residual = 6.92607e-15, No Iterations 3
DICPCG:  Solving for G, Initial residual = 8.96907e-12, Final residual = 6.54433e-13, No Iterations 11
BiCG:  Solving for T+T, Initial residual = 4.36846e-12, Final residual = 4.29319e-13, No Iterations 3
ExecutionTime = 2.12 s



Wall heat fluxes [W]
movingWall -0.0645481 -5.05176e-16 0.0645481 1.01627e-11
left 0.54176 -2.77488e-16 1.13197 1.67373
right -0.320741 3.31672e-15 -1.35298 -1.67373
bottom -0.156471 0 0.156471 7.20796e-12
frontAndBack 0 0 0 0
sum -1.73135e-09 2.53405e-15 2.95736e-13 -1.73105e-09


Wall heat fluxes [W]
topAndBottom 0 0 0 0
left 1.67373 0 0 1.67373
right -1.67373 0 0 -1.67373
frontAndBack 0 0 0 0
sum 8.84823e-10 0 0 8.84823e-10

Time = 996

DILUPBiCG:  Solving for Ux, Initial residual = 1.78913e-11, Final residual = 3.98594e-15, No Iterations 2
DILUPBiCG:  Solving for Uy, Initial residual = 2.33654e-11, Final residual = 5.64877e-15, No Iterations 2
DICPCG:  Solving for p_rgh, Initial residual = 3.14863e-11, Final residual = 1.85629e-13, No Iterations 10
time step continuity errors : sum local = 5.74442e-13, global = 1.15938e-16, cumulative = -2.38522e-15
DILUPBiCG:  Solving for epsilon, Initial residual = 1.94138e-11, Final residual = 1.8714e-15, No Iterations 3
DILUPBiCG:  Solving for k, Initial residual = 3.91096e-11, Final residual = 6.78512e-15, No Iterations 3
DICPCG:  Solving for G, Initial residual = 9.41335e-12, Final residual = 7.54321e-13, No Iterations 12
BiCG:  Solving for T+T, Initial residual = 4.34486e-12, Final residual = 4.03613e-13, No Iterations 1
ExecutionTime = 2.12 s



Wall heat fluxes [W]
movingWall -0.0645481 -9.50644e-16 0.0645481 1.0175e-11
left 0.54176 4.85604e-15 1.13197 1.67373
right -0.320741 1.65819e-15 -1.35298 -1.67373
bottom -0.156471 0 0.156471 7.40163e-12
frontAndBack 0 0 0 0
sum -1.69613e-09 5.56358e-15 5.46785e-15 -1.69612e-09


Wall heat fluxes [W]
topAndBottom 0 0 0 0
left 1.67373 0 0 1.67373
right -1.67373 0 0 -1.67373
frontAndBack 0 0 0 0
sum -3.65976e-11 0 0 -3.65976e-11

Time = 997

DILUPBiCG:  Solving for Ux, Initial residual = 1.68068e-11, Final residual = 3.82666e-15, No Iterations 2
DILUPBiCG:  Solving for Uy, Initial residual = 2.28913e-11, Final residual = 6.30336e-15, No Iterations 2
DICPCG:  Solving for p_rgh, Initial residual = 2.74015e-11, Final residual = 1.33708e-13, No Iterations 10
time step continuity errors : sum local = 4.12095e-13, global = 4.49986e-17, cumulative = -2.34022e-15
DILUPBiCG:  Solving for epsilon, Initial residual = 1.91005e-11, Final residual = 1.81555e-15, No Iterations 3
DILUPBiCG:  Solving for k, Initial residual = 3.84581e-11, Final residual = 6.63441e-15, No Iterations 3
DICPCG:  Solving for G, Initial residual = 1.05455e-11, Final residual = 9.21272e-13, No Iterations 12
BiCG:  Solving for T+T, Initial residual = 4.06274e-12, Final residual = 4.05365e-13, No Iterations 1
ExecutionTime = 2.12 s



Wall heat fluxes [W]
movingWall -0.0645481 -1.23713e-15 0.0645481 1.07239e-11
left 0.54176 4.16232e-15 1.13197 1.67373
right -0.320741 -2.07426e-15 -1.35298 -1.67373
bottom -0.156471 0 0.156471 8.08215e-12
frontAndBack 0 0 0 0
sum -1.66154e-09 8.50936e-16 2.17243e-13 -1.66132e-09


Wall heat fluxes [W]
topAndBottom 0 0 0 0
left 1.67373 0 0 1.67373
right -1.67373 0 0 -1.67373
frontAndBack 0 0 0 0
sum -4.99787e-11 0 0 -4.99787e-11

Time = 998

DILUPBiCG:  Solving for Ux, Initial residual = 1.7484e-11, Final residual = 3.79119e-15, No Iterations 2
DILUPBiCG:  Solving for Uy, Initial residual = 2.13181e-11, Final residual = 6.68155e-15, No Iterations 2
DICPCG:  Solving for p_rgh, Initial residual = 2.6325e-11, Final residual = 1.4419e-13, No Iterations 10
time step continuity errors : sum local = 4.46156e-13, global = -2.63639e-16, cumulative = -2.60386e-15
DILUPBiCG:  Solving for epsilon, Initial residual = 1.86751e-11, Final residual = 1.77201e-15, No Iterations 3
DILUPBiCG:  Solving for k, Initial residual = 3.76886e-11, Final residual = 6.49876e-15, No Iterations 3
DICPCG:  Solving for G, Initial residual = 9.20224e-12, Final residual = 4.61335e-13, No Iterations 11
BiCG:  Solving for T+T, Initial residual = 3.99951e-12, Final residual = 3.94899e-13, No Iterations 2
ExecutionTime = 2.13 s



Wall heat fluxes [W]
movingWall -0.0645481 -4.20437e-16 0.0645481 9.27426e-12
left 0.54176 -5.54976e-15 1.13197 1.67373
right -0.320741 -3.73149e-15 -1.35298 -1.67373
bottom -0.156471 0 0.156471 6.77883e-12
frontAndBack 0 0 0 0
sum -1.62645e-09 -9.70168e-15 3.53578e-13 -1.6261e-09


Wall heat fluxes [W]
topAndBottom 0 0 0 0
left 1.67373 0 0 1.67373
right -1.67373 0 0 -1.67373
frontAndBack 0 0 0 0
sum 2.68902e-10 0 0 2.68902e-10

Time = 999

DILUPBiCG:  Solving for Ux, Initial residual = 1.71264e-11, Final residual = 3.71262e-15, No Iterations 2
DILUPBiCG:  Solving for Uy, Initial residual = 2.22254e-11, Final residual = 4.7583e-15, No Iterations 2
DICPCG:  Solving for p_rgh, Initial residual = 3.08328e-11, Final residual = 1.9106e-13, No Iterations 10
time step continuity errors : sum local = 5.90253e-13, global = -1.48231e-16, cumulative = -2.75209e-15
DILUPBiCG:  Solving for epsilon, Initial residual = 1.82212e-11, Final residual = 1.75508e-15, No Iterations 3
DILUPBiCG:  Solving for k, Initial residual = 3.67512e-11, Final residual = 6.37049e-15, No Iterations 3
DICPCG:  Solving for G, Initial residual = 8.2326e-12, Final residual = 6.30939e-13, No Iterations 11
BiCG:  Solving for T+T, Initial residual = 4.01728e-12, Final residual = 3.94709e-13, No Iterations 3
ExecutionTime = 2.13 s



Wall heat fluxes [W]
movingWall -0.0645481 5.33605e-16 0.0645481 9.32274e-12
left 0.54176 -1.94242e-15 1.13197 1.67373
right -0.320741 -4.14779e-15 -1.35298 -1.67373
bottom -0.156471 0 0.156471 6.60025e-12
frontAndBack 0 0 0 0
sum -1.59239e-09 -5.5566e-15 1.05471e-13 -1.59229e-09


Wall heat fluxes [W]
topAndBottom 0 0 0 0
left 1.67373 0 0 1.67373
right -1.67373 0 0 -1.67373
frontAndBack 0 0 0 0
sum 8.13996e-10 0 0 8.13996e-10

Time = 1000

DILUPBiCG:  Solving for Ux, Initial residual = 1.6458e-11, Final residual = 3.66597e-15, No Iterations 2
DILUPBiCG:  Solving for Uy, Initial residual = 2.15248e-11, Final residual = 5.1778e-15, No Iterations 2
DICPCG:  Solving for p_rgh, Initial residual = 2.89657e-11, Final residual = 1.70395e-13, No Iterations 10
time step continuity errors : sum local = 5.27801e-13, global = -2.64698e-18, cumulative = -2.75474e-15
DILUPBiCG:  Solving for epsilon, Initial residual = 1.78558e-11, Final residual = 1.72128e-15, No Iterations 3
DILUPBiCG:  Solving for k, Initial residual = 3.59713e-11, Final residual = 6.24082e-15, No Iterations 3
DICPCG:  Solving for G, Initial residual = 8.71666e-12, Final residual = 6.66123e-13, No Iterations 12
BiCG:  Solving for T+T, Initial residual = 3.99701e-12, Final residual = 3.72218e-13, No Iterations 1
ExecutionTime = 2.13 s



Wall heat fluxes [W]
movingWall -0.0645481 -6.65417e-16 0.0645481 9.46586e-12
left 0.54176 -3.74609e-15 1.13197 1.67373
right -0.320741 6.63705e-15 -1.35298 -1.67373
bottom -0.156471 0 0.156471 6.92724e-12
frontAndBack 0 0 0 0
sum -1.56023e-09 2.22555e-15 7.50816e-13 -1.55948e-09


Wall heat fluxes [W]
topAndBottom 0 0 0 0
left 1.67373 0 0 1.67373
right -1.67373 0 0 -1.67373
frontAndBack 0 0 0 0
sum -3.33691e-11 0 0 -3.33691e-11

End

