/*---------------------------------------------------------------------------*\
| =========                 |                                                 |
| \\      /  F ield         | OpenFOAM Extend Project: Open source CFD        |
|  \\    /   O peration     | Version:  1.6-ext                               |
|   \\  /    A nd           | Web:      www.extend-project.de                 |
|    \\/     M anipulation  |                                                 |
\*---------------------------------------------------------------------------*/
Build  : 1.6-ext-8673d8aecf4d
Exec   : chipAirCoolingSimpleFoam
Date   : Nov 01 2011
Time   : 21:09:40
Host   : diokletian
PID    : 17554
Case   : /home/henrus/projects/ChipAirCooling/run/tutorial1_extendedHTC/conjugateContactCavity
nProcs : 1
SigFpe : Enabling floating point exception trapping (FOAM_SIGFPE).

// * * * * * * * * * * * * * * * * * * * * * * * * * * * * * * * * * * * * * //
Create time

Create mesh for time = 0


    From function void polyMesh::initMesh()
    in file meshes/polyMesh/polyMeshInitMesh.C at line 82
    Truncating neighbour list at 180 for backward compatibility

Reading g
Reading transportProperties

Calculating field g.h

Reading field p_rgh

Reading field U

Reading field T

Selecting external radiation source viewFactor
Here 2
externalRadiationSource::externalRadiationSource
Selecting external radiation source viewFactor
Here 2
externalRadiationSource::externalRadiationSource
Selecting external radiation source constantFlux
Here 2
externalRadiationSource::externalRadiationSource
Selecting external radiation source pointSource
Here 2
externalRadiationSource::externalRadiationSource
Reading/calculating face flux field phi

Selecting incompressible transport model Newtonian
Selecting RAS turbulence model kEpsilon
kEpsilonCoeffs
{
    Cmu             0.09;
    C1              1.44;
    C2              1.92;
    alphaEps        0.76923;
    sigmaEps        1.3;
}

Reading field kappaEff

Creating radiation model

Selecting radiationModel P1
Selecting absorptionEmissionModel constantAbsorptionEmission
Selecting scatterModel constantScatter
Reading field Tsolid

Reading solid thermal properties
Selecting thermal model multiMaterialZones
Selecting thermal model constant
Selecting thermal model constant
Selecting thermal gap model constant
Reading solid diffusivity k


Starting time loop

--> FOAM Warning : 
    From function dlLibraryTable::open(const dictionary& dict, const word& libsEntry, const TablePtr tablePtr)
    in file lnInclude/dlLibraryTableTemplates.C at line 68
    library "libairbusMaterialModels.so" did not introduce any new entries

Time = 1

DILUPBiCG:  Solving for Ux, Initial residual = 1, Final residual = 9.72759e-05, No Iterations 2
DILUPBiCG:  Solving for Uy, Initial residual = 1, Final residual = 0.000174731, No Iterations 2
DICPCG:  Solving for p_rgh, Initial residual = 1, Final residual = 0.00985949, No Iterations 5
time step continuity errors : sum local = 0.00481111, global = 2.0845e-18, cumulative = 2.0845e-18
DILUPBiCG:  Solving for epsilon, Initial residual = 0.0778063, Final residual = 0.000142604, No Iterations 2
DILUPBiCG:  Solving for k, Initial residual = 1, Final residual = 0.00249972, No Iterations 2
DICPCG:  Solving for G, Initial residual = 1, Final residual = 0.0255384, No Iterations 11
BiCG:  Solving for T+T, Initial residual = 0.307165, Final residual = 0.000239352, No Iterations 9
ExecutionTime = 0.02 s



Wall heat fluxes [W]
movingWall 0.0114395 0 8.04921e-07 0.0114403
left 0.00483465 0 -1.20093e-06 0.00483345
right -0.53784 0 8.04921e-07 -0.53784
bottom -0.152215 0 -1.20093e-06 -0.152216
frontAndBack 0 0 0 0
sum -0.673781 0 -7.92022e-07 -0.673782


Wall heat fluxes [W]
topAndBottom 0 0 0 0
left 27.4165 0 0 27.4165
right -17.4694 0 0 -17.4694
frontAndBack 0 0 0 0
sum 9.94707 0 0 9.94707

Time = 2

DILUPBiCG:  Solving for Ux, Initial residual = 0.88769, Final residual = 9.20248e-05, No Iterations 2
DILUPBiCG:  Solving for Uy, Initial residual = 0.829137, Final residual = 0.0071566, No Iterations 1
DICPCG:  Solving for p_rgh, Initial residual = 0.901166, Final residual = 0.00690333, No Iterations 6
time step continuity errors : sum local = 0.0228645, global = -1.46775e-16, cumulative = -1.4469e-16
DILUPBiCG:  Solving for epsilon, Initial residual = 0.0242355, Final residual = 3.05531e-05, No Iterations 2
DILUPBiCG:  Solving for k, Initial residual = 0.650793, Final residual = 0.000806904, No Iterations 2
DICPCG:  Solving for G, Initial residual = 0.993798, Final residual = 0.0318098, No Iterations 13
BiCG:  Solving for T+T, Initial residual = 0.0227005, Final residual = 1.58406e-05, No Iterations 11
ExecutionTime = 0.02 s



Wall heat fluxes [W]
movingWall 0.0117469 -2.8128e-16 0.411516 0.423263
left 0.0111151 -1.62241e-17 0.408013 0.419128
right -0.575768 -6.26644e-15 -1.11482 -1.69059
bottom -0.331232 0 0.295293 -0.0359388
frontAndBack 0 0 0 0
sum -0.884138 -6.56395e-15 3.10234e-06 -0.884135


Wall heat fluxes [W]
topAndBottom 0 0 0 0
left 19.8772 0 0 19.8772
right -6.6393 0 0 -6.6393
frontAndBack 0 0 0 0
sum 13.2379 0 0 13.2379

Time = 3

DILUPBiCG:  Solving for Ux, Initial residual = 0.236496, Final residual = 0.0020894, No Iterations 1
DILUPBiCG:  Solving for Uy, Initial residual = 0.284098, Final residual = 0.00227478, No Iterations 1
DICPCG:  Solving for p_rgh, Initial residual = 0.413068, Final residual = 0.00351232, No Iterations 7
time step continuity errors : sum local = 0.012487, global = 1.56172e-16, cumulative = 1.14813e-17
DILUPBiCG:  Solving for epsilon, Initial residual = 0.0753675, Final residual = 4.11683e-05, No Iterations 2
DILUPBiCG:  Solving for k, Initial residual = 0.218075, Final residual = 0.000272202, No Iterations 2
DICPCG:  Solving for G, Initial residual = 0.163035, Final residual = 0.00501148, No Iterations 11
BiCG:  Solving for T+T, Initial residual = 0.00668824, Final residual = 4.2613e-06, No Iterations 10
ExecutionTime = 0.02 s



Wall heat fluxes [W]
movingWall 0.0143156 4.7634e-19 0.577674 0.59199
left 0.0143436 3.11473e-19 0.574181 0.588524
right -0.595833 7.21283e-15 -1.28341 -1.87924
bottom -0.281438 0 0.131552 -0.149887
frontAndBack 0 0 0 0
sum -0.848613 7.21362e-15 1.00697e-07 -0.848612


Wall heat fluxes [W]
topAndBottom 0 0 0 0
left 19.8409 0 0 19.8409
right -4.51208 0 0 -4.51208
frontAndBack 0 0 0 0
sum 15.3288 0 0 15.3288

Time = 4

DILUPBiCG:  Solving for Ux, Initial residual = 0.158024, Final residual = 0.00151585, No Iterations 1
DILUPBiCG:  Solving for Uy, Initial residual = 0.238384, Final residual = 0.00232631, No Iterations 1
DICPCG:  Solving for p_rgh, Initial residual = 0.15654, Final residual = 0.00110034, No Iterations 10
time step continuity errors : sum local = 0.00303979, global = -2.10435e-16, cumulative = -1.98953e-16
DILUPBiCG:  Solving for epsilon, Initial residual = 0.119145, Final residual = 9.56934e-05, No Iterations 2
DILUPBiCG:  Solving for k, Initial residual = 0.131546, Final residual = 0.000168437, No Iterations 2
DICPCG:  Solving for G, Initial residual = 0.0507963, Final residual = 0.00158404, No Iterations 13
BiCG:  Solving for T+T, Initial residual = 0.00388989, Final residual = 1.88815e-06, No Iterations 11
ExecutionTime = 0.03 s



Wall heat fluxes [W]
movingWall 0.0163263 -1.73324e-17 0.637111 0.653437
left 0.0173812 7.21199e-17 0.633057 0.650439
right -0.623251 -9.83094e-15 -1.46107 -2.08432
bottom -0.311619 0 0.190902 -0.120717
frontAndBack 0 0 0 0
sum -0.901162 -9.77615e-15 5.90672e-07 -0.901162


Wall heat fluxes [W]
topAndBottom 0 0 0 0
left 14.5306 0 0 14.5306
right -3.75306 0 0 -3.75306
frontAndBack 0 0 0 0
sum 10.7775 0 0 10.7775

Time = 5

DILUPBiCG:  Solving for Ux, Initial residual = 0.119481, Final residual = 0.0011, No Iterations 1
DILUPBiCG:  Solving for Uy, Initial residual = 0.159541, Final residual = 0.00135186, No Iterations 1
DICPCG:  Solving for p_rgh, Initial residual = 0.108712, Final residual = 0.000938981, No Iterations 10
time step continuity errors : sum local = 0.00226523, global = -7.5108e-17, cumulative = -2.74061e-16
DILUPBiCG:  Solving for epsilon, Initial residual = 0.141009, Final residual = 0.000126008, No Iterations 2
DILUPBiCG:  Solving for k, Initial residual = 0.0983428, Final residual = 0.000148395, No Iterations 2
DICPCG:  Solving for G, Initial residual = 0.0544165, Final residual = 0.00153584, No Iterations 13
BiCG:  Solving for T+T, Initial residual = 0.002855, Final residual = 1.02728e-06, No Iterations 11
ExecutionTime = 0.03 s



Wall heat fluxes [W]
movingWall 0.0178839 -9.55389e-17 0.714099 0.731982
left 0.0206479 -3.49028e-16 0.709609 0.730257
right -0.640137 -3.32695e-15 -1.63381 -2.27395
bottom -0.336137 0 0.210106 -0.126031
frontAndBack 0 0 0 0
sum -0.937742 -3.77152e-15 7.7951e-07 -0.937741


Wall heat fluxes [W]
topAndBottom 0 0 0 0
left 10.8753 0 0 10.8753
right -3.3724 0 0 -3.3724
frontAndBack 0 0 0 0
sum 7.50289 0 0 7.50289

Time = 6

DILUPBiCG:  Solving for Ux, Initial residual = 0.0962362, Final residual = 0.000785862, No Iterations 1
DILUPBiCG:  Solving for Uy, Initial residual = 0.093364, Final residual = 0.000720317, No Iterations 1
DICPCG:  Solving for p_rgh, Initial residual = 0.0980473, Final residual = 0.000563582, No Iterations 11
time step continuity errors : sum local = 0.00146779, global = 1.88597e-18, cumulative = -2.72176e-16
DILUPBiCG:  Solving for epsilon, Initial residual = 0.137257, Final residual = 0.000132613, No Iterations 2
DILUPBiCG:  Solving for k, Initial residual = 0.0813239, Final residual = 0.000249523, No Iterations 2
DICPCG:  Solving for G, Initial residual = 0.0350057, Final residual = 0.00105429, No Iterations 13
BiCG:  Solving for T+T, Initial residual = 0.00231131, Final residual = 1.81232e-06, No Iterations 10
ExecutionTime = 0.03 s



Wall heat fluxes [W]
movingWall 0.0193446 1.54969e-16 0.768236 0.787581
left 0.0246352 2.77759e-18 0.763374 0.78801
right -0.650054 -8.05903e-19 -1.76154 -2.41159
bottom -0.353649 0 0.22993 -0.123719
frontAndBack 0 0 0 0
sum -0.959724 1.56941e-16 3.68883e-07 -0.959723


Wall heat fluxes [W]
topAndBottom 0 0 0 0
left 8.21804 0 0 8.21804
right -3.14376 0 0 -3.14376
frontAndBack 0 0 0 0
sum 5.07428 0 0 5.07428

Time = 7

DILUPBiCG:  Solving for Ux, Initial residual = 0.0758869, Final residual = 0.000625356, No Iterations 1
DILUPBiCG:  Solving for Uy, Initial residual = 0.0743109, Final residual = 0.000539817, No Iterations 1
DICPCG:  Solving for p_rgh, Initial residual = 0.0819114, Final residual = 0.000430017, No Iterations 11
time step continuity errors : sum local = 0.00100234, global = 1.57991e-17, cumulative = -2.56376e-16
DILUPBiCG:  Solving for epsilon, Initial residual = 0.113431, Final residual = 0.000121515, No Iterations 2
DILUPBiCG:  Solving for k, Initial residual = 0.0715329, Final residual = 9.61794e-05, No Iterations 2
DICPCG:  Solving for G, Initial residual = 0.0245279, Final residual = 0.00070434, No Iterations 13
BiCG:  Solving for T+T, Initial residual = 0.0019762, Final residual = 1.55401e-06, No Iterations 8
ExecutionTime = 0.03 s



Wall heat fluxes [W]
movingWall 0.0209706 -7.28474e-16 0.808693 0.829663
left 0.0282073 3.07567e-17 0.803589 0.831796
right -0.654946 1.69146e-15 -1.85136 -2.5063
bottom -0.362248 0 0.239077 -0.123171
frontAndBack 0 0 0 0
sum -0.968016 9.93743e-16 2.99789e-07 -0.968015


Wall heat fluxes [W]
topAndBottom 0 0 0 0
left 6.4447 0 0 6.4447
right -2.99536 0 0 -2.99536
frontAndBack 0 0 0 0
sum 3.44933 0 0 3.44933

Time = 8

DILUPBiCG:  Solving for Ux, Initial residual = 0.063768, Final residual = 0.000526212, No Iterations 1
DILUPBiCG:  Solving for Uy, Initial residual = 0.0670403, Final residual = 0.000472393, No Iterations 1
DICPCG:  Solving for p_rgh, Initial residual = 0.0730519, Final residual = 0.000615187, No Iterations 10
time step continuity errors : sum local = 0.00135098, global = 1.26029e-16, cumulative = -1.30347e-16
DILUPBiCG:  Solving for epsilon, Initial residual = 0.0888376, Final residual = 0.000878536, No Iterations 2
DILUPBiCG:  Solving for k, Initial residual = 0.0661686, Final residual = 0.000106426, No Iterations 2
DICPCG:  Solving for G, Initial residual = 0.0168125, Final residual = 0.000478147, No Iterations 13
BiCG:  Solving for T+T, Initial residual = 0.00175628, Final residual = 6.03108e-07, No Iterations 8
ExecutionTime = 0.03 s



Wall heat fluxes [W]
movingWall 0.0225206 -4.71513e-16 0.837658 0.860179
left 0.0304862 -2.11368e-17 0.832385 0.862871
right -0.65672 7.645e-15 -1.91249 -2.56921
bottom -0.364595 0 0.242447 -0.122148
frontAndBack 0 0 0 0
sum -0.968308 7.15235e-15 1.22337e-07 -0.968308


Wall heat fluxes [W]
topAndBottom 0 0 0 0
left 5.24292 0 0 5.24292
right -2.89654 0 0 -2.89654
frontAndBack 0 0 0 0
sum 2.34638 0 0 2.34638

Time = 9

DILUPBiCG:  Solving for Ux, Initial residual = 0.0554752, Final residual = 0.000448885, No Iterations 1
DILUPBiCG:  Solving for Uy, Initial residual = 0.0620462, Final residual = 0.000428124, No Iterations 1
DICPCG:  Solving for p_rgh, Initial residual = 0.0725928, Final residual = 0.000527772, No Iterations 10
time step continuity errors : sum local = 0.00115305, global = 1.0669e-16, cumulative = -2.36574e-17
DILUPBiCG:  Solving for epsilon, Initial residual = 0.0705651, Final residual = 9.10413e-05, No Iterations 2
DILUPBiCG:  Solving for k, Initial residual = 0.0620626, Final residual = 0.000102381, No Iterations 2
DICPCG:  Solving for G, Initial residual = 0.0118727, Final residual = 0.000313465, No Iterations 13
BiCG:  Solving for T+T, Initial residual = 0.00161567, Final residual = 4.34836e-07, No Iterations 8
ExecutionTime = 0.04 s



Wall heat fluxes [W]
movingWall 0.0240135 6.18115e-16 0.858716 0.88273
left 0.0316124 6.04295e-17 0.853343 0.884956
right -0.656708 3.83174e-15 -1.95357 -2.61028
bottom -0.363374 0 0.241508 -0.121866
frontAndBack 0 0 0 0
sum -0.964456 4.51028e-15 1.13714e-07 -0.964456


Wall heat fluxes [W]
topAndBottom 0 0 0 0
left 4.43638 0 0 4.43638
right -2.82975 0 0 -2.82975
frontAndBack 0 0 0 0
sum 1.60664 0 0 1.60664

Time = 10

DILUPBiCG:  Solving for Ux, Initial residual = 0.048754, Final residual = 0.000395522, No Iterations 1
DILUPBiCG:  Solving for Uy, Initial residual = 0.0576996, Final residual = 0.000387468, No Iterations 1
DICPCG:  Solving for p_rgh, Initial residual = 0.0727092, Final residual = 0.000500463, No Iterations 10
time step continuity errors : sum local = 0.00107864, global = -3.78104e-16, cumulative = -4.01762e-16
DILUPBiCG:  Solving for epsilon, Initial residual = 0.0568218, Final residual = 5.49299e-05, No Iterations 2
DILUPBiCG:  Solving for k, Initial residual = 0.0588024, Final residual = 9.20728e-05, No Iterations 2
DICPCG:  Solving for G, Initial residual = 0.00835803, Final residual = 0.00021317, No Iterations 13
BiCG:  Solving for T+T, Initial residual = 0.00152547, Final residual = 3.51812e-07, No Iterations 8
ExecutionTime = 0.04 s



Wall heat fluxes [W]
movingWall 0.0254721 -1.7343e-17 0.87385 0.899322
left 0.0322597 1.13813e-17 0.868412 0.900672
right -0.655741 -1.87841e-14 -1.9811 -2.63684
bottom -0.36087 0 0.238836 -0.122034
frontAndBack 0 0 0 0
sum -0.958879 -1.87901e-14 4.93481e-08 -0.958879


Wall heat fluxes [W]
topAndBottom 0 0 0 0
left 3.89112 0 0 3.89112
right -2.78422 0 0 -2.78422
frontAndBack 0 0 0 0
sum 1.1069 0 0 1.1069

Time = 11

DILUPBiCG:  Solving for Ux, Initial residual = 0.0438617, Final residual = 0.000362642, No Iterations 1
DILUPBiCG:  Solving for Uy, Initial residual = 0.0536731, Final residual = 0.000361674, No Iterations 1
DICPCG:  Solving for p_rgh, Initial residual = 0.0715105, Final residual = 0.000475559, No Iterations 10
time step continuity errors : sum local = 0.00101142, global = 2.35519e-16, cumulative = -1.66243e-16
DILUPBiCG:  Solving for epsilon, Initial residual = 0.0463437, Final residual = 5.76504e-05, No Iterations 2
DILUPBiCG:  Solving for k, Initial residual = 0.0558087, Final residual = 8.05398e-05, No Iterations 2
DICPCG:  Solving for G, Initial residual = 0.00586768, Final residual = 0.000144404, No Iterations 13
BiCG:  Solving for T+T, Initial residual = 0.0014658, Final residual = 2.87971e-07, No Iterations 8
ExecutionTime = 0.04 s



Wall heat fluxes [W]
movingWall 0.0269256 1.0731e-16 0.884615 0.911541
left 0.0326831 8.56311e-17 0.879138 0.911821
right -0.654353 1.23946e-14 -1.9997 -2.65405
bottom -0.357937 0 0.235948 -0.12199
frontAndBack 0 0 0 0
sum -0.952681 1.25875e-14 2.97782e-08 -0.952681


Wall heat fluxes [W]
topAndBottom 0 0 0 0
left 3.51808 0 0 3.51808
right -2.75303 0 0 -2.75303
frontAndBack 0 0 0 0
sum 0.765045 0 0 0.765045

Time = 12

DILUPBiCG:  Solving for Ux, Initial residual = 0.0399679, Final residual = 0.000347137, No Iterations 1
DILUPBiCG:  Solving for Uy, Initial residual = 0.0503825, Final residual = 0.000336042, No Iterations 1
DICPCG:  Solving for p_rgh, Initial residual = 0.0700148, Final residual = 0.000436684, No Iterations 10
time step continuity errors : sum local = 0.000925605, global = 2.639e-16, cumulative = 9.76569e-17
DILUPBiCG:  Solving for epsilon, Initial residual = 0.0384888, Final residual = 5.99515e-05, No Iterations 2
DILUPBiCG:  Solving for k, Initial residual = 0.0531651, Final residual = 7.11943e-05, No Iterations 2
DICPCG:  Solving for G, Initial residual = 0.00420503, Final residual = 0.000100766, No Iterations 13
BiCG:  Solving for T+T, Initial residual = 0.0014258, Final residual = 1.41619e-06, No Iterations 7
ExecutionTime = 0.04 s



Wall heat fluxes [W]
movingWall 0.0284101 5.2029e-16 0.892405 0.920816
left 0.0328933 1.7343e-17 0.8869 0.919794
right -0.652865 1.36909e-14 -2.01219 -2.66505
bottom -0.354729 0 0.232884 -0.121845
frontAndBack 0 0 0 0
sum -0.946291 1.42286e-14 2.46771e-09 -0.946291


Wall heat fluxes [W]
topAndBottom 0 0 0 0
left 3.26244 0 0 3.26244
right -2.73162 0 0 -2.73162
frontAndBack 0 0 0 0
sum 0.530818 0 0 0.530818

Time = 13

DILUPBiCG:  Solving for Ux, Initial residual = 0.0367694, Final residual = 0.000358442, No Iterations 1
DILUPBiCG:  Solving for Uy, Initial residual = 0.0474129, Final residual = 0.000302348, No Iterations 1
DICPCG:  Solving for p_rgh, Initial residual = 0.0666255, Final residual = 0.000410389, No Iterations 10
time step continuity errors : sum local = 0.000880104, global = 4.15774e-16, cumulative = 5.13431e-16
DILUPBiCG:  Solving for epsilon, Initial residual = 0.0327216, Final residual = 5.71407e-05, No Iterations 2
DILUPBiCG:  Solving for k, Initial residual = 0.0509039, Final residual = 6.75859e-05, No Iterations 2
DICPCG:  Solving for G, Initial residual = 0.0030685, Final residual = 6.98387e-05, No Iterations 13
BiCG:  Solving for T+T, Initial residual = 0.00140055, Final residual = 1.17041e-06, No Iterations 7
ExecutionTime = 0.04 s



Wall heat fluxes [W]
movingWall 0.02997 5.85326e-16 0.898127 0.928097
left 0.0329593 4.76932e-17 0.892605 0.925564
right -0.651431 2.01188e-14 -2.02049 -2.67192
bottom -0.35144 0 0.229757 -0.121683
frontAndBack 0 0 0 0
sum -0.939942 2.07518e-14 -3.259e-09 -0.939942


Wall heat fluxes [W]
topAndBottom 0 0 0 0
left 3.0879 0 0 3.0879
right -2.71678 0 0 -2.71678
frontAndBack 0 0 0 0
sum 0.37112 0 0 0.37112

Time = 14

DILUPBiCG:  Solving for Ux, Initial residual = 0.0340629, Final residual = 6.16495e-06, No Iterations 2
DILUPBiCG:  Solving for Uy, Initial residual = 0.0450815, Final residual = 0.000279321, No Iterations 1
DICPCG:  Solving for p_rgh, Initial residual = 0.0624549, Final residual = 0.000411191, No Iterations 10
time step continuity errors : sum local = 0.000890227, global = 2.46301e-16, cumulative = 7.59732e-16
DILUPBiCG:  Solving for epsilon, Initial residual = 0.0284681, Final residual = 4.66869e-05, No Iterations 2
DILUPBiCG:  Solving for k, Initial residual = 0.0493253, Final residual = 6.55767e-05, No Iterations 2
DICPCG:  Solving for G, Initial residual = 0.00227826, Final residual = 0.00021521, No Iterations 11
BiCG:  Solving for T+T, Initial residual = 0.00139045, Final residual = 9.81969e-07, No Iterations 7
ExecutionTime = 0.05 s



Wall heat fluxes [W]
movingWall 0.0316633 9.97222e-17 0.902388 0.934051
left 0.0329849 2.60145e-17 0.896854 0.929839
right -0.650124 1.3282e-14 -2.02595 -2.67607
bottom -0.348199 0 0.226707 -0.121492
frontAndBack 0 0 0 0
sum -0.933675 1.34077e-14 9.58461e-08 -0.933675


Wall heat fluxes [W]
topAndBottom 0 0 0 0
left 2.9683 0 0 2.9683
right -2.70644 0 0 -2.70644
frontAndBack 0 0 0 0
sum 0.26186 0 0 0.26186

Time = 15

DILUPBiCG:  Solving for Ux, Initial residual = 0.031653, Final residual = 6.35505e-06, No Iterations 2
DILUPBiCG:  Solving for Uy, Initial residual = 0.0436018, Final residual = 0.00026347, No Iterations 1
DICPCG:  Solving for p_rgh, Initial residual = 0.0565961, Final residual = 0.000422344, No Iterations 10
time step continuity errors : sum local = 0.000924141, global = -6.2515e-16, cumulative = 1.34582e-16
DILUPBiCG:  Solving for epsilon, Initial residual = 0.0254548, Final residual = 3.51798e-05, No Iterations 2
DILUPBiCG:  Solving for k, Initial residual = 0.0483393, Final residual = 6.49789e-05, No Iterations 2
DICPCG:  Solving for G, Initial residual = 0.00188385, Final residual = 0.000179607, No Iterations 12
BiCG:  Solving for T+T, Initial residual = 0.00138605, Final residual = 8.24881e-07, No Iterations 7
ExecutionTime = 0.05 s



Wall heat fluxes [W]
movingWall 0.0335836 -8.6715e-17 0.905623 0.939207
left 0.033085 1.47415e-16 0.900082 0.933167
right -0.648962 -3.17086e-14 -2.02949 -2.67846
bottom -0.345434 0 0.223789 -0.121644
frontAndBack 0 0 0 0
sum -0.927727 -3.16479e-14 -1.98019e-07 -0.927727


Wall heat fluxes [W]
topAndBottom 0 0 0 0
left 2.88647 0 0 2.88647
right -2.69918 0 0 -2.69918
frontAndBack 0 0 0 0
sum 0.187288 0 0 0.187288

Time = 16

DILUPBiCG:  Solving for Ux, Initial residual = 0.0295041, Final residual = 5.93516e-06, No Iterations 2
DILUPBiCG:  Solving for Uy, Initial residual = 0.0423825, Final residual = 0.000254632, No Iterations 1
DICPCG:  Solving for p_rgh, Initial residual = 0.0536396, Final residual = 0.000494393, No Iterations 9
time step continuity errors : sum local = 0.00110104, global = 6.16746e-17, cumulative = 1.96257e-16
DILUPBiCG:  Solving for epsilon, Initial residual = 0.0234898, Final residual = 2.60969e-05, No Iterations 2
DILUPBiCG:  Solving for k, Initial residual = 0.0479645, Final residual = 6.53778e-05, No Iterations 2
DICPCG:  Solving for G, Initial residual = 0.00156684, Final residual = 4.35554e-05, No Iterations 13
BiCG:  Solving for T+T, Initial residual = 0.00138516, Final residual = 1.03429e-06, No Iterations 6
ExecutionTime = 0.05 s



Wall heat fluxes [W]
movingWall 0.035789 -3.81546e-16 0.907964 0.943753
left 0.0333272 6.07005e-17 0.902415 0.935742
right -0.647937 3.43042e-15 -2.03192 -2.67986
bottom -0.342874 0 0.221545 -0.121329
frontAndBack 0 0 0 0
sum -0.921695 3.10958e-15 -5.86593e-08 -0.921695


Wall heat fluxes [W]
topAndBottom 0 0 0 0
left 2.82913 0 0 2.82913
right -2.69419 0 0 -2.69419
frontAndBack 0 0 0 0
sum 0.134941 0 0 0.134941

Time = 17

DILUPBiCG:  Solving for Ux, Initial residual = 0.0279386, Final residual = 5.2235e-06, No Iterations 2
DILUPBiCG:  Solving for Uy, Initial residual = 0.0411256, Final residual = 0.000260908, No Iterations 1
DICPCG:  Solving for p_rgh, Initial residual = 0.0519705, Final residual = 0.000325435, No Iterations 10
time step continuity errors : sum local = 0.000736289, global = 4.26953e-16, cumulative = 6.2321e-16
DILUPBiCG:  Solving for epsilon, Initial residual = 0.022238, Final residual = 2.00277e-05, No Iterations 2
DILUPBiCG:  Solving for k, Initial residual = 0.0477967, Final residual = 6.83583e-05, No Iterations 2
DICPCG:  Solving for G, Initial residual = 0.00114858, Final residual = 3.48054e-05, No Iterations 13
BiCG:  Solving for T+T, Initial residual = 0.00138902, Final residual = 6.80664e-07, No Iterations 6
ExecutionTime = 0.05 s



Wall heat fluxes [W]
movingWall 0.0383463 1.56087e-16 0.909879 0.948225
left 0.0338823 -2.42802e-16 0.904325 0.938207
right -0.64702 2.14323e-14 -2.03341 -2.68043
bottom -0.340385 0 0.219203 -0.121182
frontAndBack 0 0 0 0
sum -0.915176 2.13455e-14 -3.20869e-08 -0.915176


Wall heat fluxes [W]
topAndBottom 0 0 0 0
left 2.79122 0 0 2.79122
right -2.69043 0 0 -2.69043
frontAndBack 0 0 0 0
sum 0.100786 0 0 0.100786

Time = 18

DILUPBiCG:  Solving for Ux, Initial residual = 0.026447, Final residual = 4.56779e-06, No Iterations 2
DILUPBiCG:  Solving for Uy, Initial residual = 0.0405091, Final residual = 0.000277405, No Iterations 1
DICPCG:  Solving for p_rgh, Initial residual = 0.0495682, Final residual = 0.000283985, No Iterations 10
time step continuity errors : sum local = 0.000666496, global = 2.26846e-16, cumulative = 8.50056e-16
DILUPBiCG:  Solving for epsilon, Initial residual = 0.0213522, Final residual = 1.76792e-05, No Iterations 2
DILUPBiCG:  Solving for k, Initial residual = 0.0477806, Final residual = 7.21381e-05, No Iterations 2
DICPCG:  Solving for G, Initial residual = 0.00101546, Final residual = 3.55364e-05, No Iterations 13
BiCG:  Solving for T+T, Initial residual = 0.00139501, Final residual = 6.86132e-07, No Iterations 6
ExecutionTime = 0.06 s



Wall heat fluxes [W]
movingWall 0.0413265 5.2029e-17 0.911407 0.952734
left 0.0348463 -1.21401e-16 0.905848 0.940694
right -0.646181 9.85806e-15 -2.03432 -2.6805
bottom -0.338034 0 0.217063 -0.120971
frontAndBack 0 0 0 0
sum -0.908042 9.78869e-15 -4.22437e-08 -0.908042


Wall heat fluxes [W]
topAndBottom 0 0 0 0
left 2.76518 0 0 2.76518
right -2.68764 0 0 -2.68764
frontAndBack 0 0 0 0
sum 0.0775418 0 0 0.0775418

Time = 19

DILUPBiCG:  Solving for Ux, Initial residual = 0.0251022, Final residual = 4.04338e-06, No Iterations 2
DILUPBiCG:  Solving for Uy, Initial residual = 0.0401702, Final residual = 0.000298373, No Iterations 1
DICPCG:  Solving for p_rgh, Initial residual = 0.0466118, Final residual = 0.000243171, No Iterations 10
time step continuity errors : sum local = 0.00057985, global = 1.66495e-16, cumulative = 1.01655e-15
DILUPBiCG:  Solving for epsilon, Initial residual = 0.0206845, Final residual = 1.82879e-05, No Iterations 2
DILUPBiCG:  Solving for k, Initial residual = 0.0478901, Final residual = 7.6264e-05, No Iterations 2
DICPCG:  Solving for G, Initial residual = 0.000900357, Final residual = 8.36932e-05, No Iterations 12
BiCG:  Solving for T+T, Initial residual = 0.00140227, Final residual = 7.77948e-07, No Iterations 6
ExecutionTime = 0.06 s



Wall heat fluxes [W]
movingWall 0.0448009 4.85604e-16 0.912693 0.957493
left 0.0363714 -3.4686e-17 0.907129 0.9435
right -0.645387 6.86634e-15 -2.03484 -2.68023
bottom -0.335808 0 0.215023 -0.120785
frontAndBack 0 0 0 0
sum -0.900022 7.31726e-15 -1.20698e-07 -0.900022


Wall heat fluxes [W]
topAndBottom 0 0 0 0
left 2.74817 0 0 2.74817
right -2.68549 0 0 -2.68549
frontAndBack 0 0 0 0
sum 0.0626753 0 0 0.0626753

Time = 20

DILUPBiCG:  Solving for Ux, Initial residual = 0.0238907, Final residual = 3.63255e-06, No Iterations 2
DILUPBiCG:  Solving for Uy, Initial residual = 0.0400031, Final residual = 0.000309346, No Iterations 1
DICPCG:  Solving for p_rgh, Initial residual = 0.0440249, Final residual = 0.000221742, No Iterations 10
time step continuity errors : sum local = 0.000551883, global = -1.63583e-16, cumulative = 8.52968e-16
DILUPBiCG:  Solving for epsilon, Initial residual = 0.020576, Final residual = 2.02329e-05, No Iterations 2
DILUPBiCG:  Solving for k, Initial residual = 0.0481505, Final residual = 8.08599e-05, No Iterations 2
DICPCG:  Solving for G, Initial residual = 0.000888941, Final residual = 7.7092e-05, No Iterations 12
BiCG:  Solving for T+T, Initial residual = 0.00140731, Final residual = 8.67192e-07, No Iterations 6
ExecutionTime = 0.06 s



Wall heat fluxes [W]
movingWall 0.0488994 1.04058e-15 0.913791 0.96269
left 0.0386299 -6.9372e-17 0.908223 0.946853
right -0.644604 -1.11533e-14 -2.03513 -2.67974
bottom -0.333695 0 0.213117 -0.120578
frontAndBack 0 0 0 0
sum -0.89077 -1.01821e-14 -9.8133e-08 -0.89077


Wall heat fluxes [W]
topAndBottom 0 0 0 0
left 2.7371 0 0 2.7371
right -2.68376 0 0 -2.68376
frontAndBack 0 0 0 0
sum 0.0533469 0 0 0.0533469

Time = 21

DILUPBiCG:  Solving for Ux, Initial residual = 0.0225535, Final residual = 3.28818e-06, No Iterations 2
DILUPBiCG:  Solving for Uy, Initial residual = 0.039692, Final residual = 0.000315539, No Iterations 1
DICPCG:  Solving for p_rgh, Initial residual = 0.0422064, Final residual = 0.000274475, No Iterations 10
time step continuity errors : sum local = 0.000694255, global = -1.38437e-16, cumulative = 7.14531e-16
DILUPBiCG:  Solving for epsilon, Initial residual = 0.0205766, Final residual = 2.19823e-05, No Iterations 2
DILUPBiCG:  Solving for k, Initial residual = 0.0485954, Final residual = 8.6463e-05, No Iterations 2
DICPCG:  Solving for G, Initial residual = 0.000819774, Final residual = 7.223e-05, No Iterations 12
BiCG:  Solving for T+T, Initial residual = 0.00140932, Final residual = 9.30165e-07, No Iterations 6
ExecutionTime = 0.06 s



Wall heat fluxes [W]
movingWall 0.0536759 5.54976e-16 0.914767 0.968443
left 0.0417959 3.4686e-17 0.909195 0.950991
right -0.643802 -6.85724e-15 -2.03527 -2.67907
bottom -0.331709 0 0.211303 -0.120406
frontAndBack 0 0 0 0
sum -0.88004 -6.26757e-15 -9.1958e-08 -0.88004


Wall heat fluxes [W]
topAndBottom 0 0 0 0
left 2.73043 0 0 2.73043
right -2.68228 0 0 -2.68228
frontAndBack 0 0 0 0
sum 0.0481442 0 0 0.0481442

Time = 22

DILUPBiCG:  Solving for Ux, Initial residual = 0.0211026, Final residual = 3.14832e-06, No Iterations 2
DILUPBiCG:  Solving for Uy, Initial residual = 0.0390142, Final residual = 0.000314559, No Iterations 1
DICPCG:  Solving for p_rgh, Initial residual = 0.0417137, Final residual = 0.000295787, No Iterations 10
time step continuity errors : sum local = 0.000766421, global = -3.19226e-16, cumulative = 3.95305e-16
DILUPBiCG:  Solving for epsilon, Initial residual = 0.0204828, Final residual = 2.34329e-05, No Iterations 2
DILUPBiCG:  Solving for k, Initial residual = 0.049154, Final residual = 9.16232e-05, No Iterations 2
DICPCG:  Solving for G, Initial residual = 0.000774389, Final residual = 7.48797e-05, No Iterations 12
BiCG:  Solving for T+T, Initial residual = 0.00140691, Final residual = 9.46612e-07, No Iterations 6
ExecutionTime = 0.06 s



Wall heat fluxes [W]
movingWall 0.0591017 7.63092e-16 0.915642 0.974744
left 0.0459618 -6.9372e-17 0.910066 0.956027
right -0.642956 -1.67257e-14 -2.03533 -2.67829
bottom -0.329979 0 0.209622 -0.120357
frontAndBack 0 0 0 0
sum -0.867872 -1.6032e-14 -1.13126e-07 -0.867872


Wall heat fluxes [W]
topAndBottom 0 0 0 0
left 2.72651 0 0 2.72651
right -2.68096 0 0 -2.68096
frontAndBack 0 0 0 0
sum 0.0455507 0 0 0.0455507

Time = 23

DILUPBiCG:  Solving for Ux, Initial residual = 0.0196727, Final residual = 3.13113e-06, No Iterations 2
DILUPBiCG:  Solving for Uy, Initial residual = 0.0382373, Final residual = 0.000322917, No Iterations 1
DICPCG:  Solving for p_rgh, Initial residual = 0.0403626, Final residual = 0.000351325, No Iterations 10
time step continuity errors : sum local = 0.000969774, global = -2.64168e-16, cumulative = 1.31137e-16
DILUPBiCG:  Solving for epsilon, Initial residual = 0.0200369, Final residual = 2.46741e-05, No Iterations 2
DILUPBiCG:  Solving for k, Initial residual = 0.0494057, Final residual = 9.59744e-05, No Iterations 2
DICPCG:  Solving for G, Initial residual = 0.000699332, Final residual = 2.64357e-05, No Iterations 13
BiCG:  Solving for T+T, Initial residual = 0.00139972, Final residual = 9.46504e-07, No Iterations 6
ExecutionTime = 0.07 s



Wall heat fluxes [W]
movingWall 0.0651459 5.54976e-16 0.916386 0.981532
left 0.0512499 2.42802e-16 0.910806 0.962056
right -0.642044 -1.37194e-14 -2.03543 -2.67747
bottom -0.328417 0 0.208235 -0.120182
frontAndBack 0 0 0 0
sum -0.854065 -1.29216e-14 -3.02074e-08 -0.854065


Wall heat fluxes [W]
topAndBottom 0 0 0 0
left 2.72392 0 0 2.72392
right -2.67971 0 0 -2.67971
frontAndBack 0 0 0 0
sum 0.044205 0 0 0.044205

Time = 24

DILUPBiCG:  Solving for Ux, Initial residual = 0.0182428, Final residual = 3.24715e-06, No Iterations 2
DILUPBiCG:  Solving for Uy, Initial residual = 0.0369814, Final residual = 0.000330415, No Iterations 1
DICPCG:  Solving for p_rgh, Initial residual = 0.0382704, Final residual = 0.000271537, No Iterations 11
time step continuity errors : sum local = 0.000798673, global = -2.17052e-17, cumulative = 1.09432e-16
DILUPBiCG:  Solving for epsilon, Initial residual = 0.0193179, Final residual = 2.5168e-05, No Iterations 2
DILUPBiCG:  Solving for k, Initial residual = 0.049497, Final residual = 9.9209e-05, No Iterations 2
DICPCG:  Solving for G, Initial residual = 0.00064208, Final residual = 2.49119e-05, No Iterations 13
BiCG:  Solving for T+T, Initial residual = 0.00138872, Final residual = 9.38661e-07, No Iterations 6
ExecutionTime = 0.07 s



Wall heat fluxes [W]
movingWall 0.0717567 -1.2487e-15 0.917096 0.988853
left 0.057725 -1.04058e-16 0.911512 0.969237
right -0.641053 1.28726e-15 -2.03551 -2.67656
bottom -0.326894 0 0.206898 -0.119996
frontAndBack 0 0 0 0
sum -0.838466 -6.54916e-17 -3.41553e-08 -0.838466


Wall heat fluxes [W]
topAndBottom 0 0 0 0
left 2.72296 0 0 2.72296
right -2.67851 0 0 -2.67851
frontAndBack 0 0 0 0
sum 0.0444529 0 0 0.0444529

Time = 25

DILUPBiCG:  Solving for Ux, Initial residual = 0.0168689, Final residual = 3.42607e-06, No Iterations 2
DILUPBiCG:  Solving for Uy, Initial residual = 0.0355724, Final residual = 0.000335781, No Iterations 1
DICPCG:  Solving for p_rgh, Initial residual = 0.0366828, Final residual = 0.000321598, No Iterations 11
time step continuity errors : sum local = 0.000966562, global = -1.54584e-16, cumulative = -4.51517e-17
DILUPBiCG:  Solving for epsilon, Initial residual = 0.0180888, Final residual = 2.46356e-05, No Iterations 2
DILUPBiCG:  Solving for k, Initial residual = 0.0491533, Final residual = 0.000100576, No Iterations 2
DICPCG:  Solving for G, Initial residual = 0.000600156, Final residual = 2.27987e-05, No Iterations 13
BiCG:  Solving for T+T, Initial residual = 0.00137089, Final residual = 9.2692e-07, No Iterations 6
ExecutionTime = 0.07 s



Wall heat fluxes [W]
movingWall 0.0788805 -5.54976e-16 0.917786 0.996667
left 0.065409 2.77488e-16 0.912198 0.977607
right -0.639982 -7.71347e-15 -2.03558 -2.67556
bottom -0.325431 0 0.205593 -0.119837
frontAndBack 0 0 0 0
sum -0.821123 -7.99096e-15 -3.09198e-08 -0.821123


Wall heat fluxes [W]
topAndBottom 0 0 0 0
left 2.72264 0 0 2.72264
right -2.67731 0 0 -2.67731
frontAndBack 0 0 0 0
sum 0.0453318 0 0 0.0453318

Time = 26

DILUPBiCG:  Solving for Ux, Initial residual = 0.0155597, Final residual = 3.54952e-06, No Iterations 2
DILUPBiCG:  Solving for Uy, Initial residual = 0.0339877, Final residual = 0.000337921, No Iterations 1
DICPCG:  Solving for p_rgh, Initial residual = 0.033711, Final residual = 0.000168027, No Iterations 12
time step continuity errors : sum local = 0.000505163, global = 4.15576e-17, cumulative = -3.5941e-18
DILUPBiCG:  Solving for epsilon, Initial residual = 0.0167138, Final residual = 2.41778e-05, No Iterations 2
DILUPBiCG:  Solving for k, Initial residual = 0.0482918, Final residual = 0.00010048, No Iterations 2
DICPCG:  Solving for G, Initial residual = 0.000561933, Final residual = 2.07385e-05, No Iterations 13
BiCG:  Solving for T+T, Initial residual = 0.00134901, Final residual = 9.14878e-07, No Iterations 6
ExecutionTime = 0.07 s



Wall heat fluxes [W]
movingWall 0.0864362 0 0.918451 1.00489
left 0.0742706 -5.54976e-16 0.91286 0.98713
right -0.638835 4.28765e-15 -2.03567 -2.67451
bottom -0.324007 0 0.204362 -0.119645
frontAndBack 0 0 0 0
sum -0.802135 3.73267e-15 -3.04315e-08 -0.802135


Wall heat fluxes [W]
topAndBottom 0 0 0 0
left 2.72236 0 0 2.72236
right -2.67609 0 0 -2.67609
frontAndBack 0 0 0 0
sum 0.0462657 0 0 0.0462657

Time = 27

DILUPBiCG:  Solving for Ux, Initial residual = 0.0143965, Final residual = 4.09502e-06, No Iterations 2
DILUPBiCG:  Solving for Uy, Initial residual = 0.0319586, Final residual = 3.0651e-06, No Iterations 2
DICPCG:  Solving for p_rgh, Initial residual = 0.0302971, Final residual = 0.000157555, No Iterations 12
time step continuity errors : sum local = 0.00048152, global = -1.94555e-16, cumulative = -1.98149e-16
DILUPBiCG:  Solving for epsilon, Initial residual = 0.0153965, Final residual = 2.36906e-05, No Iterations 2
DILUPBiCG:  Solving for k, Initial residual = 0.0469842, Final residual = 9.91189e-05, No Iterations 2
DICPCG:  Solving for G, Initial residual = 0.000510383, Final residual = 1.8271e-05, No Iterations 13
BiCG:  Solving for T+T, Initial residual = 0.00132063, Final residual = 8.91828e-07, No Iterations 6
ExecutionTime = 0.07 s



Wall heat fluxes [W]
movingWall 0.0943436 -2.77488e-16 0.919115 1.01346
left 0.084216 -1.04058e-16 0.91352 0.997736
right -0.637623 -1.02945e-14 -2.03578 -2.6734
bottom -0.32261 0 0.203146 -0.119465
frontAndBack 0 0 0 0
sum -0.781673 -1.06761e-14 -2.348e-08 -0.781674


Wall heat fluxes [W]
topAndBottom 0 0 0 0
left 2.72202 0 0 2.72202
right -2.67485 0 0 -2.67485
frontAndBack 0 0 0 0
sum 0.0471615 0 0 0.0471615

Time = 28

DILUPBiCG:  Solving for Ux, Initial residual = 0.0132603, Final residual = 5.67715e-06, No Iterations 2
DILUPBiCG:  Solving for Uy, Initial residual = 0.0298098, Final residual = 3.0239e-06, No Iterations 2
DICPCG:  Solving for p_rgh, Initial residual = 0.0275312, Final residual = 0.000141331, No Iterations 12
time step continuity errors : sum local = 0.000436832, global = 2.14141e-16, cumulative = 1.59915e-17
DILUPBiCG:  Solving for epsilon, Initial residual = 0.0139904, Final residual = 2.33736e-05, No Iterations 2
DILUPBiCG:  Solving for k, Initial residual = 0.0452604, Final residual = 9.69112e-05, No Iterations 2
DICPCG:  Solving for G, Initial residual = 0.000464319, Final residual = 1.59747e-05, No Iterations 13
BiCG:  Solving for T+T, Initial residual = 0.00128588, Final residual = 8.83183e-07, No Iterations 6
ExecutionTime = 0.08 s



Wall heat fluxes [W]
movingWall 0.102499 -6.9372e-16 0.919771 1.02227
left 0.095096 5.54976e-16 0.914174 1.00927
right -0.636361 1.20085e-14 -2.03591 -2.67227
bottom -0.321215 0 0.201965 -0.11925
frontAndBack 0 0 0 0
sum -0.759981 1.18698e-14 -1.78895e-08 -0.759981


Wall heat fluxes [W]
topAndBottom 0 0 0 0
left 2.72127 0 0 2.72127
right -2.6736 0 0 -2.6736
frontAndBack 0 0 0 0
sum 0.0476633 0 0 0.0476633

Time = 29

DILUPBiCG:  Solving for Ux, Initial residual = 0.0122294, Final residual = 1.29566e-05, No Iterations 2
DILUPBiCG:  Solving for Uy, Initial residual = 0.0273429, Final residual = 2.91416e-06, No Iterations 2
DICPCG:  Solving for p_rgh, Initial residual = 0.0251222, Final residual = 0.00020944, No Iterations 11
time step continuity errors : sum local = 0.000665578, global = -2.04479e-16, cumulative = -1.88488e-16
DILUPBiCG:  Solving for epsilon, Initial residual = 0.0129489, Final residual = 2.41832e-05, No Iterations 2
DILUPBiCG:  Solving for k, Initial residual = 0.0433867, Final residual = 9.32398e-05, No Iterations 2
DICPCG:  Solving for G, Initial residual = 0.000416183, Final residual = 1.31091e-05, No Iterations 13
BiCG:  Solving for T+T, Initial residual = 0.00124369, Final residual = 8.94055e-07, No Iterations 6
ExecutionTime = 0.08 s



Wall heat fluxes [W]
movingWall 0.110794 8.32464e-16 0.920437 1.03123
left 0.106718 6.9372e-17 0.914839 1.02156
right -0.635066 -1.20069e-14 -2.03604 -2.67111
bottom -0.319802 0 0.200768 -0.119034
frontAndBack 0 0 0 0
sum -0.737356 -1.1105e-14 -8.79098e-09 -0.737356


Wall heat fluxes [W]
topAndBottom 0 0 0 0
left 2.7202 0 0 2.7202
right -2.67234 0 0 -2.67234
frontAndBack 0 0 0 0
sum 0.0478517 0 0 0.0478517

Time = 30

DILUPBiCG:  Solving for Ux, Initial residual = 0.0112884, Final residual = 3.2068e-05, No Iterations 2
DILUPBiCG:  Solving for Uy, Initial residual = 0.0247227, Final residual = 2.73806e-06, No Iterations 2
DICPCG:  Solving for p_rgh, Initial residual = 0.0231574, Final residual = 0.000122228, No Iterations 11
time step continuity errors : sum local = 0.000380685, global = -2.35054e-16, cumulative = -4.23541e-16
DILUPBiCG:  Solving for epsilon, Initial residual = 0.0120845, Final residual = 2.78747e-05, No Iterations 2
DILUPBiCG:  Solving for k, Initial residual = 0.0411544, Final residual = 8.96028e-05, No Iterations 2
DICPCG:  Solving for G, Initial residual = 0.000373518, Final residual = 2.31667e-05, No Iterations 11
BiCG:  Solving for T+T, Initial residual = 0.00119991, Final residual = 9.15115e-07, No Iterations 6
ExecutionTime = 0.08 s



Wall heat fluxes [W]
movingWall 0.119128 0 0.921108 1.04024
left 0.11886 6.9372e-16 0.915509 1.03437
right -0.63376 -1.20075e-14 -2.03618 -2.66994
bottom -0.318434 0 0.19956 -0.118874
frontAndBack 0 0 0 0
sum -0.714206 -1.13138e-14 -1.00565e-08 -0.714206


Wall heat fluxes [W]
topAndBottom 0 0 0 0
left 2.71859 0 0 2.71859
right -2.67108 0 0 -2.67108
frontAndBack 0 0 0 0
sum 0.0475008 0 0 0.0475008

Time = 31

DILUPBiCG:  Solving for Ux, Initial residual = 0.0104787, Final residual = 8.30513e-06, No Iterations 2
DILUPBiCG:  Solving for Uy, Initial residual = 0.022047, Final residual = 2.66236e-06, No Iterations 2
DICPCG:  Solving for p_rgh, Initial residual = 0.0214126, Final residual = 9.22365e-05, No Iterations 11
time step continuity errors : sum local = 0.000283468, global = -9.50265e-17, cumulative = -5.18568e-16
DILUPBiCG:  Solving for epsilon, Initial residual = 0.0114677, Final residual = 4.21429e-05, No Iterations 2
DILUPBiCG:  Solving for k, Initial residual = 0.0389943, Final residual = 9.23601e-05, No Iterations 2
DICPCG:  Solving for G, Initial residual = 0.000355233, Final residual = 2.13941e-05, No Iterations 11
BiCG:  Solving for T+T, Initial residual = 0.00115774, Final residual = 9.28804e-07, No Iterations 6
ExecutionTime = 0.08 s



Wall heat fluxes [W]
movingWall 0.127405 8.32464e-16 0.921754 1.04916
left 0.131291 5.2029e-16 0.916156 1.04745
right -0.632459 -6.43335e-15 -2.03634 -2.6688
bottom -0.316994 0 0.198431 -0.118563
frontAndBack 0 0 0 0
sum -0.690757 -5.0806e-15 -7.16737e-08 -0.690757


Wall heat fluxes [W]
topAndBottom 0 0 0 0
left 2.71633 0 0 2.71633
right -2.66984 0 0 -2.66984
frontAndBack 0 0 0 0
sum 0.0464886 0 0 0.0464886

Time = 32

DILUPBiCG:  Solving for Ux, Initial residual = 0.00976261, Final residual = 5.41807e-06, No Iterations 2
DILUPBiCG:  Solving for Uy, Initial residual = 0.0194999, Final residual = 2.7054e-06, No Iterations 2
DICPCG:  Solving for p_rgh, Initial residual = 0.0198223, Final residual = 0.000151423, No Iterations 7
time step continuity errors : sum local = 0.000649307, global = -2.39552e-16, cumulative = -7.58119e-16
DILUPBiCG:  Solving for epsilon, Initial residual = 0.0108695, Final residual = 3.49082e-07, No Iterations 3
DILUPBiCG:  Solving for k, Initial residual = 0.0367518, Final residual = 6.66953e-05, No Iterations 2
DICPCG:  Solving for G, Initial residual = 0.000378667, Final residual = 3.08973e-05, No Iterations 12
BiCG:  Solving for T+T, Initial residual = 0.00111446, Final residual = 9.50549e-07, No Iterations 6
ExecutionTime = 0.09 s



Wall heat fluxes [W]
movingWall 0.135543 5.54976e-16 0.922449 1.05799
left 0.143777 -1.56087e-15 0.916853 1.06063
right -0.631177 -1.02979e-14 -2.03645 -2.66762
bottom -0.315411 0 0.197146 -0.118266
frontAndBack 0 0 0 0
sum -0.667268 -1.13038e-14 -1.94153e-08 -0.667268


Wall heat fluxes [W]
topAndBottom 0 0 0 0
left 2.71436 0 0 2.71436
right -2.66862 0 0 -2.66862
frontAndBack 0 0 0 0
sum 0.0457378 0 0 0.0457378

Time = 33

DILUPBiCG:  Solving for Ux, Initial residual = 0.00909163, Final residual = 4.30646e-06, No Iterations 2
DILUPBiCG:  Solving for Uy, Initial residual = 0.0172503, Final residual = 2.72763e-06, No Iterations 2
DICPCG:  Solving for p_rgh, Initial residual = 0.0185056, Final residual = 0.000174646, No Iterations 7
time step continuity errors : sum local = 0.000782495, global = -1.83436e-16, cumulative = -9.41555e-16
DILUPBiCG:  Solving for epsilon, Initial residual = 0.0103462, Final residual = 1.96174e-05, No Iterations 2
DILUPBiCG:  Solving for k, Initial residual = 0.0351129, Final residual = 6.55461e-05, No Iterations 2
DICPCG:  Solving for G, Initial residual = 0.000400897, Final residual = 2.72575e-05, No Iterations 12
BiCG:  Solving for T+T, Initial residual = 0.00107183, Final residual = 9.55798e-07, No Iterations 6
ExecutionTime = 0.09 s



Wall heat fluxes [W]
movingWall 0.143474 0 0.923171 1.06664
left 0.156088 3.81546e-16 0.917577 1.07367
right -0.629928 -1.15801e-14 -2.03651 -2.66644
bottom -0.313637 0 0.195761 -0.117876
frontAndBack 0 0 0 0
sum -0.644003 -1.11986e-14 6.05135e-09 -0.644003


Wall heat fluxes [W]
topAndBottom 0 0 0 0
left 2.7122 0 0 2.7122
right -2.66742 0 0 -2.66742
frontAndBack 0 0 0 0
sum 0.0447808 0 0 0.0447808

Time = 34

DILUPBiCG:  Solving for Ux, Initial residual = 0.0085192, Final residual = 3.75462e-06, No Iterations 2
DILUPBiCG:  Solving for Uy, Initial residual = 0.0153183, Final residual = 4.17862e-06, No Iterations 2
DICPCG:  Solving for p_rgh, Initial residual = 0.0175179, Final residual = 0.000126609, No Iterations 7
time step continuity errors : sum local = 0.000579245, global = 3.6793e-16, cumulative = -5.73625e-16
DILUPBiCG:  Solving for epsilon, Initial residual = 0.00992961, Final residual = 9.0424e-06, No Iterations 2
DILUPBiCG:  Solving for k, Initial residual = 0.0335137, Final residual = 6.09699e-05, No Iterations 2
DICPCG:  Solving for G, Initial residual = 0.000430447, Final residual = 3.20713e-05, No Iterations 12
BiCG:  Solving for T+T, Initial residual = 0.00103352, Final residual = 9.57657e-07, No Iterations 6
ExecutionTime = 0.09 s



Wall heat fluxes [W]
movingWall 0.151144 -1.38744e-15 0.923957 1.0751
left 0.168026 5.2029e-16 0.918368 1.08639
right -0.628719 1.84498e-14 -2.0365 -2.66521
bottom -0.31162 0 0.19417 -0.11745
frontAndBack 0 0 0 0
sum -0.62117 1.75827e-14 4.15297e-08 -0.62117


Wall heat fluxes [W]
topAndBottom 0 0 0 0
left 2.71043 0 0 2.71043
right -2.66624 0 0 -2.66624
frontAndBack 0 0 0 0
sum 0.0441821 0 0 0.0441821

Time = 35

DILUPBiCG:  Solving for Ux, Initial residual = 0.00797616, Final residual = 7.14795e-05, No Iterations 1
DILUPBiCG:  Solving for Uy, Initial residual = 0.0138178, Final residual = 6.3049e-06, No Iterations 2
DICPCG:  Solving for p_rgh, Initial residual = 0.0163881, Final residual = 0.000152039, No Iterations 6
time step continuity errors : sum local = 0.000469483, global = -1.01909e-16, cumulative = -6.75534e-16
DILUPBiCG:  Solving for epsilon, Initial residual = 0.00952331, Final residual = 6.40276e-06, No Iterations 2
DILUPBiCG:  Solving for k, Initial residual = 0.0319632, Final residual = 5.86711e-05, No Iterations 2
DICPCG:  Solving for G, Initial residual = 0.000468149, Final residual = 3.84449e-05, No Iterations 12
BiCG:  Solving for T+T, Initial residual = 0.00100447, Final residual = 9.5595e-07, No Iterations 6
ExecutionTime = 0.09 s



Wall heat fluxes [W]
movingWall 0.158515 -5.54976e-16 0.924809 1.08332
left 0.179416 -6.9372e-17 0.919225 1.09864
right -0.627552 -5.14834e-15 -2.0364 -2.66395
bottom -0.309349 0 0.192366 -0.116983
frontAndBack 0 0 0 0
sum -0.59897 -5.77269e-15 3.655e-08 -0.59897


Wall heat fluxes [W]
topAndBottom 0 0 0 0
left 2.70899 0 0 2.70899
right -2.66508 0 0 -2.66508
frontAndBack 0 0 0 0
sum 0.0439163 0 0 0.0439163

Time = 36

DILUPBiCG:  Solving for Ux, Initial residual = 0.00744331, Final residual = 6.58452e-05, No Iterations 1
DILUPBiCG:  Solving for Uy, Initial residual = 0.0125159, Final residual = 3.77803e-06, No Iterations 2
DICPCG:  Solving for p_rgh, Initial residual = 0.0155284, Final residual = 5.41979e-05, No Iterations 12
time step continuity errors : sum local = 0.000166174, global = -4.63486e-16, cumulative = -1.13902e-15
DILUPBiCG:  Solving for epsilon, Initial residual = 0.00913283, Final residual = 6.37433e-06, No Iterations 2
DILUPBiCG:  Solving for k, Initial residual = 0.0304114, Final residual = 6.44034e-05, No Iterations 2
DICPCG:  Solving for G, Initial residual = 0.000511071, Final residual = 4.55534e-05, No Iterations 12
BiCG:  Solving for T+T, Initial residual = 0.000976829, Final residual = 9.65954e-07, No Iterations 6
ExecutionTime = 0.09 s



Wall heat fluxes [W]
movingWall 0.165557 0 0.925733 1.09129
left 0.190135 -1.17932e-15 0.920155 1.11029
right -0.626418 -2.05981e-14 -2.03623 -2.66264
bottom -0.306868 0 0.190337 -0.116531
frontAndBack 0 0 0 0
sum -0.577594 -2.17774e-14 3.1428e-08 -0.577594


Wall heat fluxes [W]
topAndBottom 0 0 0 0
left 2.70822 0 0 2.70822
right -2.66391 0 0 -2.66391
frontAndBack 0 0 0 0
sum 0.0443132 0 0 0.0443132

Time = 37

DILUPBiCG:  Solving for Ux, Initial residual = 0.0069306, Final residual = 3.15555e-06, No Iterations 2
DILUPBiCG:  Solving for Uy, Initial residual = 0.0116694, Final residual = 2.55559e-06, No Iterations 2
DICPCG:  Solving for p_rgh, Initial residual = 0.0152684, Final residual = 4.86929e-05, No Iterations 12
time step continuity errors : sum local = 0.000149973, global = 3.16049e-16, cumulative = -8.2297e-16
DILUPBiCG:  Solving for epsilon, Initial residual = 0.00876621, Final residual = 6.60198e-06, No Iterations 2
DILUPBiCG:  Solving for k, Initial residual = 0.0287778, Final residual = 8.19411e-05, No Iterations 2
DICPCG:  Solving for G, Initial residual = 0.000543563, Final residual = 5.01742e-05, No Iterations 12
BiCG:  Solving for T+T, Initial residual = 0.000951459, Final residual = 6.81809e-07, No Iterations 7
ExecutionTime = 0.1 s



Wall heat fluxes [W]
movingWall 0.172255 2.77488e-16 0.926708 1.09896
left 0.200079 2.01179e-15 0.921137 1.12122
right -0.625312 1.15877e-14 -2.036 -2.66131
bottom -0.304174 0 0.188153 -0.116021
frontAndBack 0 0 0 0
sum -0.557152 1.3877e-14 3.67112e-08 -0.557152


Wall heat fluxes [W]
topAndBottom 0 0 0 0
left 2.70746 0 0 2.70746
right -2.66265 0 0 -2.66265
frontAndBack 0 0 0 0
sum 0.0448122 0 0 0.0448122

Time = 38

DILUPBiCG:  Solving for Ux, Initial residual = 0.00649516, Final residual = 3.10206e-06, No Iterations 2
DILUPBiCG:  Solving for Uy, Initial residual = 0.0111996, Final residual = 2.00676e-06, No Iterations 2
DICPCG:  Solving for p_rgh, Initial residual = 0.0152428, Final residual = 0.000137581, No Iterations 11
time step continuity errors : sum local = 0.000421634, global = -3.70577e-18, cumulative = -8.26676e-16
DILUPBiCG:  Solving for epsilon, Initial residual = 0.00840465, Final residual = 6.62689e-06, No Iterations 2
DILUPBiCG:  Solving for k, Initial residual = 0.0271346, Final residual = 0.00011315, No Iterations 2
DICPCG:  Solving for G, Initial residual = 0.00058493, Final residual = 5.54305e-05, No Iterations 12
BiCG:  Solving for T+T, Initial residual = 0.000927864, Final residual = 7.84151e-07, No Iterations 7
ExecutionTime = 0.1 s



Wall heat fluxes [W]
movingWall 0.178602 -1.10995e-15 0.927754 1.10636
left 0.209185 -6.24348e-16 0.922191 1.13138
right -0.624216 3.42969e-15 -2.03571 -2.65992
bottom -0.301267 0 0.185764 -0.115503
frontAndBack 0 0 0 0
sum -0.537696 1.69539e-15 3.67859e-08 -0.537696


Wall heat fluxes [W]
topAndBottom 0 0 0 0
left 2.70774 0 0 2.70774
right -2.66142 0 0 -2.66142
frontAndBack 0 0 0 0
sum 0.0463224 0 0 0.0463224

Time = 39

DILUPBiCG:  Solving for Ux, Initial residual = 0.00615805, Final residual = 3.40418e-06, No Iterations 2
DILUPBiCG:  Solving for Uy, Initial residual = 0.01096, Final residual = 1.66623e-06, No Iterations 2
DICPCG:  Solving for p_rgh, Initial residual = 0.0152825, Final residual = 0.000128309, No Iterations 10
time step continuity errors : sum local = 0.000410072, global = -4.92338e-17, cumulative = -8.7591e-16
DILUPBiCG:  Solving for epsilon, Initial residual = 0.00806536, Final residual = 6.3704e-06, No Iterations 2
DILUPBiCG:  Solving for k, Initial residual = 0.0255238, Final residual = 0.000149628, No Iterations 2
DICPCG:  Solving for G, Initial residual = 0.000621706, Final residual = 5.9153e-05, No Iterations 12
BiCG:  Solving for T+T, Initial residual = 0.000906506, Final residual = 8.6321e-07, No Iterations 7
ExecutionTime = 0.1 s



Wall heat fluxes [W]
movingWall 0.184605 -1.10995e-15 0.928862 1.11347
left 0.21743 -1.66493e-15 0.923307 1.14074
right -0.623117 1.71439e-15 -2.03537 -2.65848
bottom -0.298184 0 0.183198 -0.114986
frontAndBack 0 0 0 0
sum -0.519266 -1.06049e-15 4.56299e-08 -0.519266


Wall heat fluxes [W]
topAndBottom 0 0 0 0
left 2.70837 0 0 2.70837
right -2.66015 0 0 -2.66015
frontAndBack 0 0 0 0
sum 0.0482213 0 0 0.0482213

Time = 40

DILUPBiCG:  Solving for Ux, Initial residual = 0.00594725, Final residual = 3.95248e-06, No Iterations 2
DILUPBiCG:  Solving for Uy, Initial residual = 0.0109568, Final residual = 1.48257e-06, No Iterations 2
DICPCG:  Solving for p_rgh, Initial residual = 0.0153683, Final residual = 6.17684e-05, No Iterations 10
time step continuity errors : sum local = 0.000194846, global = 1.13291e-16, cumulative = -7.62619e-16
DILUPBiCG:  Solving for epsilon, Initial residual = 0.00774218, Final residual = 5.9811e-06, No Iterations 2
DILUPBiCG:  Solving for k, Initial residual = 0.0239768, Final residual = 0.000181033, No Iterations 2
DICPCG:  Solving for G, Initial residual = 0.000653719, Final residual = 6.15269e-05, No Iterations 12
BiCG:  Solving for T+T, Initial residual = 0.000888619, Final residual = 3.03842e-07, No Iterations 8
ExecutionTime = 0.1 s



Wall heat fluxes [W]
movingWall 0.190264 2.49739e-15 0.930025 1.12029
left 0.224832 2.08116e-15 0.924479 1.14931
right -0.621996 -8.58905e-16 -2.035 -2.65699
bottom -0.294971 0 0.180495 -0.114476
frontAndBack 0 0 0 0
sum -0.501872 3.71965e-15 5.15301e-08 -0.501872


Wall heat fluxes [W]
topAndBottom 0 0 0 0
left 2.70944 0 0 2.70944
right -2.65873 0 0 -2.65873
frontAndBack 0 0 0 0
sum 0.0507113 0 0 0.0507113

Time = 41

DILUPBiCG:  Solving for Ux, Initial residual = 0.00590884, Final residual = 6.56958e-06, No Iterations 2
DILUPBiCG:  Solving for Uy, Initial residual = 0.010991, Final residual = 1.36638e-06, No Iterations 2
DICPCG:  Solving for p_rgh, Initial residual = 0.0155404, Final residual = 4.46669e-05, No Iterations 10
time step continuity errors : sum local = 0.000137877, global = 3.91488e-16, cumulative = -3.71131e-16
DILUPBiCG:  Solving for epsilon, Initial residual = 0.00743614, Final residual = 5.55494e-06, No Iterations 2
DILUPBiCG:  Solving for k, Initial residual = 0.022524, Final residual = 0.000192758, No Iterations 2
DICPCG:  Solving for G, Initial residual = 0.000679429, Final residual = 6.26714e-05, No Iterations 12
BiCG:  Solving for T+T, Initial residual = 0.000872349, Final residual = 3.12895e-07, No Iterations 8
ExecutionTime = 0.1 s



Wall heat fluxes [W]
movingWall 0.195592 0 0.931234 1.12683
left 0.23142 1.94242e-15 0.925696 1.15712
right -0.620836 1.54515e-14 -2.03462 -2.65546
bottom -0.291657 0 0.17769 -0.113967
frontAndBack 0 0 0 0
sum -0.485481 1.73939e-14 6.0529e-08 -0.485481


Wall heat fluxes [W]
topAndBottom 0 0 0 0
left 2.71079 0 0 2.71079
right -2.65732 0 0 -2.65732
frontAndBack 0 0 0 0
sum 0.0534661 0 0 0.0534661

Time = 42

DILUPBiCG:  Solving for Ux, Initial residual = 0.0059437, Final residual = 7.01548e-09, No Iterations 3
DILUPBiCG:  Solving for Uy, Initial residual = 0.0110573, Final residual = 1.27487e-06, No Iterations 2
DICPCG:  Solving for p_rgh, Initial residual = 0.0158991, Final residual = 4.84521e-05, No Iterations 10
time step continuity errors : sum local = 0.000148275, global = -3.58268e-16, cumulative = -7.29399e-16
DILUPBiCG:  Solving for epsilon, Initial residual = 0.00713219, Final residual = 5.18323e-06, No Iterations 2
DILUPBiCG:  Solving for k, Initial residual = 0.0212677, Final residual = 0.000180943, No Iterations 2
DICPCG:  Solving for G, Initial residual = 0.000702112, Final residual = 6.29692e-05, No Iterations 12
BiCG:  Solving for T+T, Initial residual = 0.000858999, Final residual = 3.21151e-07, No Iterations 8
ExecutionTime = 0.11 s



Wall heat fluxes [W]
movingWall 0.200604 -2.77488e-16 0.932484 1.13309
left 0.237254 1.04058e-15 0.926955 1.16421
right -0.619623 -1.80332e-14 -2.03424 -2.65387
bottom -0.288281 0 0.174803 -0.113477
frontAndBack 0 0 0 0
sum -0.470046 -1.72701e-14 6.81592e-08 -0.470046


Wall heat fluxes [W]
topAndBottom 0 0 0 0
left 2.71233 0 0 2.71233
right -2.65585 0 0 -2.65585
frontAndBack 0 0 0 0
sum 0.0564767 0 0 0.0564767

Time = 43

DILUPBiCG:  Solving for Ux, Initial residual = 0.00598271, Final residual = 4.82249e-06, No Iterations 2
DILUPBiCG:  Solving for Uy, Initial residual = 0.0111636, Final residual = 1.19666e-06, No Iterations 2
DICPCG:  Solving for p_rgh, Initial residual = 0.0164623, Final residual = 7.36092e-05, No Iterations 10
time step continuity errors : sum local = 0.000228219, global = -1.64377e-16, cumulative = -8.93777e-16
DILUPBiCG:  Solving for epsilon, Initial residual = 0.00683096, Final residual = 4.86477e-06, No Iterations 2
DILUPBiCG:  Solving for k, Initial residual = 0.0201567, Final residual = 0.000155926, No Iterations 2
DICPCG:  Solving for G, Initial residual = 0.000717366, Final residual = 6.1175e-05, No Iterations 12
BiCG:  Solving for T+T, Initial residual = 0.000847115, Final residual = 3.29467e-07, No Iterations 8
ExecutionTime = 0.11 s



Wall heat fluxes [W]
movingWall 0.20532 8.32464e-16 0.933762 1.13908
left 0.242402 1.38744e-15 0.928242 1.17064
right -0.618344 -1.0735e-14 -2.03388 -2.65223
bottom -0.284886 0 0.171879 -0.113007
frontAndBack 0 0 0 0
sum -0.455509 -8.51511e-15 7.56932e-08 -0.455509


Wall heat fluxes [W]
topAndBottom 0 0 0 0
left 2.71387 0 0 2.71387
right -2.65431 0 0 -2.65431
frontAndBack 0 0 0 0
sum 0.0595596 0 0 0.0595596

Time = 44

DILUPBiCG:  Solving for Ux, Initial residual = 0.00600955, Final residual = 2.47915e-06, No Iterations 2
DILUPBiCG:  Solving for Uy, Initial residual = 0.0112318, Final residual = 1.13586e-06, No Iterations 2
DICPCG:  Solving for p_rgh, Initial residual = 0.0172397, Final residual = 0.000149273, No Iterations 5
time step continuity errors : sum local = 0.000747636, global = -3.82356e-16, cumulative = -1.27613e-15
DILUPBiCG:  Solving for epsilon, Initial residual = 0.00662607, Final residual = 4.61459e-06, No Iterations 2
DILUPBiCG:  Solving for k, Initial residual = 0.0192083, Final residual = 0.000127467, No Iterations 2
DICPCG:  Solving for G, Initial residual = 0.000725714, Final residual = 5.70371e-05, No Iterations 12
BiCG:  Solving for T+T, Initial residual = 0.000835496, Final residual = 3.3804e-07, No Iterations 8
ExecutionTime = 0.11 s



Wall heat fluxes [W]
movingWall 0.209756 -2.2199e-15 0.93506 1.14482
left 0.246912 7.63092e-16 0.929548 1.17646
right -0.616993 -1.67449e-14 -2.03356 -2.65055
bottom -0.28149 0 0.16895 -0.11254
frontAndBack 0 0 0 0
sum -0.441814 -1.82017e-14 8.08953e-08 -0.441814


Wall heat fluxes [W]
topAndBottom 0 0 0 0
left 2.71525 0 0 2.71525
right -2.65268 0 0 -2.65268
frontAndBack 0 0 0 0
sum 0.0625641 0 0 0.0625641

Time = 45

DILUPBiCG:  Solving for Ux, Initial residual = 0.00598365, Final residual = 1.70992e-06, No Iterations 2
DILUPBiCG:  Solving for Uy, Initial residual = 0.0113322, Final residual = 1.08114e-06, No Iterations 2
DICPCG:  Solving for p_rgh, Initial residual = 0.0180354, Final residual = 0.000102779, No Iterations 10
time step continuity errors : sum local = 0.000323364, global = -2.05537e-16, cumulative = -1.48167e-15
DILUPBiCG:  Solving for epsilon, Initial residual = 0.00645231, Final residual = 4.36933e-06, No Iterations 2
DILUPBiCG:  Solving for k, Initial residual = 0.0183363, Final residual = 0.000108385, No Iterations 2
DICPCG:  Solving for G, Initial residual = 0.000731767, Final residual = 5.04607e-05, No Iterations 12
BiCG:  Solving for T+T, Initial residual = 0.000826992, Final residual = 3.52114e-07, No Iterations 8
ExecutionTime = 0.11 s



Wall heat fluxes [W]
movingWall 0.213941 1.10995e-15 0.936376 1.15032
left 0.250957 6.9372e-17 0.930872 1.18183
right -0.615564 -1.11697e-14 -2.03327 -2.64883
bottom -0.278193 0 0.166017 -0.112176
frontAndBack 0 0 0 0
sum -0.428858 -9.99038e-15 8.06174e-08 -0.428858


Wall heat fluxes [W]
topAndBottom 0 0 0 0
left 2.71642 0 0 2.71642
right -2.65098 0 0 -2.65098
frontAndBack 0 0 0 0
sum 0.065436 0 0 0.065436

Time = 46

DILUPBiCG:  Solving for Ux, Initial residual = 0.00605507, Final residual = 1.47906e-06, No Iterations 2
DILUPBiCG:  Solving for Uy, Initial residual = 0.011159, Final residual = 1.04482e-06, No Iterations 2
DICPCG:  Solving for p_rgh, Initial residual = 0.0191183, Final residual = 0.000124413, No Iterations 5
time step continuity errors : sum local = 0.000601391, global = 9.635e-17, cumulative = -1.38532e-15
DILUPBiCG:  Solving for epsilon, Initial residual = 0.00627741, Final residual = 4.15209e-06, No Iterations 2
DILUPBiCG:  Solving for k, Initial residual = 0.0176024, Final residual = 9.18594e-05, No Iterations 2
DICPCG:  Solving for G, Initial residual = 0.00070925, Final residual = 4.25905e-05, No Iterations 12
BiCG:  Solving for T+T, Initial residual = 0.000818112, Final residual = 3.65586e-07, No Iterations 8
ExecutionTime = 0.12 s



Wall heat fluxes [W]
movingWall 0.217885 8.32464e-16 0.937661 1.15555
left 0.254496 1.04058e-15 0.932164 1.18666
right -0.614061 -1.84754e-19 -2.03306 -2.64712
bottom -0.274971 0 0.163231 -0.11174
frontAndBack 0 0 0 0
sum -0.416651 1.87286e-15 -3.7796e-09 -0.416651


Wall heat fluxes [W]
topAndBottom 0 0 0 0
left 2.71675 0 0 2.71675
right -2.64922 0 0 -2.64922
frontAndBack 0 0 0 0
sum 0.0675287 0 0 0.0675287

Time = 47

DILUPBiCG:  Solving for Ux, Initial residual = 0.00597366, Final residual = 1.29189e-06, No Iterations 2
DILUPBiCG:  Solving for Uy, Initial residual = 0.0111917, Final residual = 1.00314e-06, No Iterations 2
DICPCG:  Solving for p_rgh, Initial residual = 0.0201547, Final residual = 0.000192529, No Iterations 5
time step continuity errors : sum local = 0.000938135, global = 1.50878e-16, cumulative = -1.23444e-15
DILUPBiCG:  Solving for epsilon, Initial residual = 0.00607379, Final residual = 3.91812e-06, No Iterations 2
DILUPBiCG:  Solving for k, Initial residual = 0.016942, Final residual = 8.13224e-05, No Iterations 2
DICPCG:  Solving for G, Initial residual = 0.00071068, Final residual = 3.78133e-05, No Iterations 12
BiCG:  Solving for T+T, Initial residual = 0.000809342, Final residual = 3.79514e-07, No Iterations 8
ExecutionTime = 0.12 s



Wall heat fluxes [W]
movingWall 0.221607 -1.66493e-15 0.938959 1.16057
left 0.257676 8.32464e-16 0.933469 1.19115
right -0.612489 9.02028e-15 -2.03288 -2.64537
bottom -0.271859 0 0.160451 -0.111408
frontAndBack 0 0 0 0
sum -0.405065 8.18782e-15 6.61155e-08 -0.405065


Wall heat fluxes [W]
topAndBottom 0 0 0 0
left 2.71691 0 0 2.71691
right -2.6474 0 0 -2.6474
frontAndBack 0 0 0 0
sum 0.069507 0 0 0.069507

Time = 48

DILUPBiCG:  Solving for Ux, Initial residual = 0.00593647, Final residual = 1.17619e-06, No Iterations 2
DILUPBiCG:  Solving for Uy, Initial residual = 0.0110721, Final residual = 9.60011e-07, No Iterations 2
DICPCG:  Solving for p_rgh, Initial residual = 0.0210862, Final residual = 6.85751e-05, No Iterations 11
time step continuity errors : sum local = 0.000215646, global = -1.1329e-16, cumulative = -1.34773e-15
DILUPBiCG:  Solving for epsilon, Initial residual = 0.0058599, Final residual = 3.70587e-06, No Iterations 2
DILUPBiCG:  Solving for k, Initial residual = 0.0162738, Final residual = 7.52412e-05, No Iterations 2
DICPCG:  Solving for G, Initial residual = 0.000684855, Final residual = 5.19026e-05, No Iterations 12
BiCG:  Solving for T+T, Initial residual = 0.000802127, Final residual = 3.93978e-07, No Iterations 8
ExecutionTime = 0.12 s



Wall heat fluxes [W]
movingWall 0.22513 -2.77488e-16 0.940218 1.16535
left 0.260606 3.32986e-15 0.934735 1.19534
right -0.610859 -7.29909e-15 -2.03278 -2.64364
bottom -0.268942 0 0.157823 -0.111119
frontAndBack 0 0 0 0
sum -0.394066 -4.24672e-15 2.44428e-08 -0.394066


Wall heat fluxes [W]
topAndBottom 0 0 0 0
left 2.71612 0 0 2.71612
right -2.64555 0 0 -2.64555
frontAndBack 0 0 0 0
sum 0.0705717 0 0 0.0705717

Time = 49

DILUPBiCG:  Solving for Ux, Initial residual = 0.0059844, Final residual = 1.25251e-06, No Iterations 2
DILUPBiCG:  Solving for Uy, Initial residual = 0.0108068, Final residual = 9.35903e-07, No Iterations 2
DICPCG:  Solving for p_rgh, Initial residual = 0.0223271, Final residual = 0.000128125, No Iterations 5
time step continuity errors : sum local = 0.00046395, global = 7.67624e-17, cumulative = -1.27097e-15
DILUPBiCG:  Solving for epsilon, Initial residual = 0.00563273, Final residual = 3.51388e-06, No Iterations 2
DILUPBiCG:  Solving for k, Initial residual = 0.0156624, Final residual = 7.02293e-05, No Iterations 2
DICPCG:  Solving for G, Initial residual = 0.000672255, Final residual = 4.76638e-05, No Iterations 12
BiCG:  Solving for T+T, Initial residual = 0.000793702, Final residual = 4.06086e-07, No Iterations 8
ExecutionTime = 0.12 s



Wall heat fluxes [W]
movingWall 0.228453 -2.77488e-15 0.941427 1.16988
left 0.263243 2.08116e-16 0.935949 1.19919
right -0.609185 7.30531e-15 -2.03275 -2.64194
bottom -0.266161 0 0.155378 -0.110783
frontAndBack 0 0 0 0
sum -0.38365 4.73854e-15 2.0522e-08 -0.38365


Wall heat fluxes [W]
topAndBottom 0 0 0 0
left 2.7145 0 0 2.7145
right -2.64368 0 0 -2.64368
frontAndBack 0 0 0 0
sum 0.070822 0 0 0.070822

Time = 50

DILUPBiCG:  Solving for Ux, Initial residual = 0.00592166, Final residual = 1.27896e-06, No Iterations 2
DILUPBiCG:  Solving for Uy, Initial residual = 0.0106749, Final residual = 9.2341e-07, No Iterations 2
DICPCG:  Solving for p_rgh, Initial residual = 0.0234633, Final residual = 0.000137878, No Iterations 5
time step continuity errors : sum local = 0.000483892, global = -1.04816e-16, cumulative = -1.37579e-15
DILUPBiCG:  Solving for epsilon, Initial residual = 0.00537629, Final residual = 3.2788e-06, No Iterations 2
DILUPBiCG:  Solving for k, Initial residual = 0.0149818, Final residual = 6.64532e-05, No Iterations 2
DICPCG:  Solving for G, Initial residual = 0.000658952, Final residual = 4.18401e-05, No Iterations 12
BiCG:  Solving for T+T, Initial residual = 0.000785455, Final residual = 4.14721e-07, No Iterations 8
ExecutionTime = 0.12 s



Wall heat fluxes [W]
movingWall 0.231599 5.54976e-16 0.942618 1.17422
left 0.265713 5.54976e-16 0.937145 1.20286
right -0.607482 -4.72427e-15 -2.03277 -2.64025
bottom -0.263542 0 0.153002 -0.110541
frontAndBack 0 0 0 0
sum -0.373713 -3.61432e-15 1.47654e-08 -0.373713


Wall heat fluxes [W]
topAndBottom 0 0 0 0
left 2.71244 0 0 2.71244
right -2.64181 0 0 -2.64181
frontAndBack 0 0 0 0
sum 0.0706349 0 0 0.0706349

Time = 51

DILUPBiCG:  Solving for Ux, Initial residual = 0.00586834, Final residual = 1.31277e-06, No Iterations 2
DILUPBiCG:  Solving for Uy, Initial residual = 0.0104667, Final residual = 9.22804e-07, No Iterations 2
DICPCG:  Solving for p_rgh, Initial residual = 0.0245393, Final residual = 0.000148137, No Iterations 5
time step continuity errors : sum local = 0.000555586, global = -1.06938e-16, cumulative = -1.48272e-15
DILUPBiCG:  Solving for epsilon, Initial residual = 0.00511117, Final residual = 3.05226e-06, No Iterations 2
DILUPBiCG:  Solving for k, Initial residual = 0.0143571, Final residual = 6.45025e-05, No Iterations 2
DICPCG:  Solving for G, Initial residual = 0.000621617, Final residual = 4.54284e-05, No Iterations 12
BiCG:  Solving for T+T, Initial residual = 0.000776986, Final residual = 4.1973e-07, No Iterations 8
ExecutionTime = 0.13 s



Wall heat fluxes [W]
movingWall 0.234576 -3.05237e-15 0.943747 1.17832
left 0.268044 4.16232e-16 0.938279 1.20632
right -0.605771 -4.29133e-15 -2.03284 -2.63861
bottom -0.261109 0 0.150814 -0.110295
frontAndBack 0 0 0 0
sum -0.364259 -6.92746e-15 1.75466e-08 -0.364259


Wall heat fluxes [W]
topAndBottom 0 0 0 0
left 2.70943 0 0 2.70943
right -2.63996 0 0 -2.63996
frontAndBack 0 0 0 0
sum 0.0694717 0 0 0.0694717

Time = 52

DILUPBiCG:  Solving for Ux, Initial residual = 0.00581798, Final residual = 1.36176e-06, No Iterations 2
DILUPBiCG:  Solving for Uy, Initial residual = 0.0102049, Final residual = 9.24437e-07, No Iterations 2
DICPCG:  Solving for p_rgh, Initial residual = 0.0255512, Final residual = 0.000160128, No Iterations 5
time step continuity errors : sum local = 0.00064028, global = 6.80273e-17, cumulative = -1.4147e-15
DILUPBiCG:  Solving for epsilon, Initial residual = 0.00494185, Final residual = 2.84295e-06, No Iterations 2
DILUPBiCG:  Solving for k, Initial residual = 0.0137887, Final residual = 6.35043e-05, No Iterations 2
DICPCG:  Solving for G, Initial residual = 0.0005992, Final residual = 4.13628e-05, No Iterations 12
BiCG:  Solving for T+T, Initial residual = 0.000767907, Final residual = 4.22556e-07, No Iterations 8
ExecutionTime = 0.13 s



Wall heat fluxes [W]
movingWall 0.237396 -1.10995e-15 0.944827 1.18222
left 0.270281 -1.7343e-15 0.939363 1.20964
right -0.604069 9.02202e-15 -2.03296 -2.63703
bottom -0.258851 0 0.148766 -0.110084
frontAndBack 0 0 0 0
sum -0.355242 6.17777e-15 1.8459e-08 -0.355242


Wall heat fluxes [W]
topAndBottom 0 0 0 0
left 2.70585 0 0 2.70585
right -2.63815 0 0 -2.63815
frontAndBack 0 0 0 0
sum 0.0676904 0 0 0.0676904

Time = 53

DILUPBiCG:  Solving for Ux, Initial residual = 0.00577906, Final residual = 1.42614e-06, No Iterations 2
DILUPBiCG:  Solving for Uy, Initial residual = 0.00993626, Final residual = 9.39075e-07, No Iterations 2
DICPCG:  Solving for p_rgh, Initial residual = 0.0265037, Final residual = 0.000170508, No Iterations 5
time step continuity errors : sum local = 0.000702135, global = 2.08847e-16, cumulative = -1.20585e-15
DILUPBiCG:  Solving for epsilon, Initial residual = 0.00476254, Final residual = 2.64274e-06, No Iterations 2
DILUPBiCG:  Solving for k, Initial residual = 0.0132131, Final residual = 6.35048e-05, No Iterations 2
DICPCG:  Solving for G, Initial residual = 0.00056443, Final residual = 4.00307e-05, No Iterations 12
BiCG:  Solving for T+T, Initial residual = 0.000758213, Final residual = 4.23542e-07, No Iterations 8
ExecutionTime = 0.13 s



Wall heat fluxes [W]
movingWall 0.240069 -1.66493e-15 0.945848 1.18592
left 0.272463 2.35865e-15 0.940387 1.21285
right -0.602396 1.07408e-14 -2.03311 -2.63551
bottom -0.256769 0 0.146876 -0.109892
frontAndBack 0 0 0 0
sum -0.346632 1.14346e-14 1.57687e-08 -0.346632


Wall heat fluxes [W]
topAndBottom 0 0 0 0
left 2.70163 0 0 2.70163
right -2.63641 0 0 -2.63641
frontAndBack 0 0 0 0
sum 0.0652272 0 0 0.0652272

Time = 54

DILUPBiCG:  Solving for Ux, Initial residual = 0.00573734, Final residual = 1.4943e-06, No Iterations 2
DILUPBiCG:  Solving for Uy, Initial residual = 0.00968362, Final residual = 9.7308e-07, No Iterations 2
DICPCG:  Solving for p_rgh, Initial residual = 0.0273662, Final residual = 0.000176269, No Iterations 5
time step continuity errors : sum local = 0.000722353, global = -2.8058e-16, cumulative = -1.48643e-15
DILUPBiCG:  Solving for epsilon, Initial residual = 0.00458415, Final residual = 2.45349e-06, No Iterations 2
DILUPBiCG:  Solving for k, Initial residual = 0.0126458, Final residual = 6.47184e-05, No Iterations 2
DICPCG:  Solving for G, Initial residual = 0.000531715, Final residual = 3.6677e-05, No Iterations 12
BiCG:  Solving for T+T, Initial residual = 0.000748716, Final residual = 4.22947e-07, No Iterations 8
ExecutionTime = 0.13 s



Wall heat fluxes [W]
movingWall 0.242606 5.54976e-16 0.946807 1.18941
left 0.274622 4.85604e-16 0.94135 1.21597
right -0.600769 -1.63251e-14 -2.03329 -2.63406
bottom -0.254862 0 0.145135 -0.109727
frontAndBack 0 0 0 0
sum -0.338402 -1.52845e-14 1.42681e-08 -0.338402


Wall heat fluxes [W]
topAndBottom 0 0 0 0
left 2.69694 0 0 2.69694
right -2.63474 0 0 -2.63474
frontAndBack 0 0 0 0
sum 0.062207 0 0 0.062207

Time = 55

DILUPBiCG:  Solving for Ux, Initial residual = 0.00569325, Final residual = 1.55666e-06, No Iterations 2
DILUPBiCG:  Solving for Uy, Initial residual = 0.0094907, Final residual = 1.04205e-06, No Iterations 2
DICPCG:  Solving for p_rgh, Initial residual = 0.0281916, Final residual = 0.000177158, No Iterations 5
time step continuity errors : sum local = 0.000701856, global = 8.41739e-17, cumulative = -1.40226e-15
DILUPBiCG:  Solving for epsilon, Initial residual = 0.00438262, Final residual = 2.23157e-06, No Iterations 2
DILUPBiCG:  Solving for k, Initial residual = 0.012053, Final residual = 6.47485e-05, No Iterations 2
DICPCG:  Solving for G, Initial residual = 0.000494704, Final residual = 3.33659e-05, No Iterations 12
BiCG:  Solving for T+T, Initial residual = 0.000739533, Final residual = 4.20901e-07, No Iterations 8
ExecutionTime = 0.13 s



Wall heat fluxes [W]
movingWall 0.245018 5.54976e-16 0.947702 1.19272
left 0.276785 -2.77488e-16 0.942247 1.21903
right -0.599205 5.58486e-15 -2.03349 -2.6327
bottom -0.253114 0 0.143546 -0.109568
frontAndBack 0 0 0 0
sum -0.330516 5.86235e-15 1.28191e-08 -0.330516


Wall heat fluxes [W]
topAndBottom 0 0 0 0
left 2.69184 0 0 2.69184
right -2.63315 0 0 -2.63315
frontAndBack 0 0 0 0
sum 0.0586881 0 0 0.0586881

Time = 56

DILUPBiCG:  Solving for Ux, Initial residual = 0.00566141, Final residual = 1.62412e-06, No Iterations 2
DILUPBiCG:  Solving for Uy, Initial residual = 0.00935332, Final residual = 1.15178e-06, No Iterations 2
DICPCG:  Solving for p_rgh, Initial residual = 0.0288447, Final residual = 0.000175897, No Iterations 5
time step continuity errors : sum local = 0.000658117, global = -1.43466e-16, cumulative = -1.54572e-15
DILUPBiCG:  Solving for epsilon, Initial residual = 0.00420228, Final residual = 2.04516e-06, No Iterations 2
DILUPBiCG:  Solving for k, Initial residual = 0.0115037, Final residual = 6.61753e-05, No Iterations 2
DICPCG:  Solving for G, Initial residual = 0.00046048, Final residual = 3.012e-05, No Iterations 12
BiCG:  Solving for T+T, Initial residual = 0.00073077, Final residual = 4.17503e-07, No Iterations 8
ExecutionTime = 0.14 s



Wall heat fluxes [W]
movingWall 0.247315 -2.77488e-16 0.948536 1.19585
left 0.278972 6.9372e-17 0.943084 1.22206
right -0.597719 -7.30494e-15 -2.0337 -2.63142
bottom -0.251501 0 0.142083 -0.109418
frontAndBack 0 0 0 0
sum -0.322932 -7.51305e-15 1.061e-08 -0.322932


Wall heat fluxes [W]
topAndBottom 0 0 0 0
left 2.68651 0 0 2.68651
right -2.63167 0 0 -2.63167
frontAndBack 0 0 0 0
sum 0.0548453 0 0 0.0548453

Time = 57

DILUPBiCG:  Solving for Ux, Initial residual = 0.00563548, Final residual = 1.68434e-06, No Iterations 2
DILUPBiCG:  Solving for Uy, Initial residual = 0.00925313, Final residual = 1.34892e-06, No Iterations 2
DICPCG:  Solving for p_rgh, Initial residual = 0.0293481, Final residual = 0.000175089, No Iterations 5
time step continuity errors : sum local = 0.000608207, global = 9.71441e-17, cumulative = -1.44858e-15
DILUPBiCG:  Solving for epsilon, Initial residual = 0.00403949, Final residual = 1.87854e-06, No Iterations 2
DILUPBiCG:  Solving for k, Initial residual = 0.0109785, Final residual = 6.95268e-05, No Iterations 2
DICPCG:  Solving for G, Initial residual = 0.000428016, Final residual = 2.67723e-05, No Iterations 12
BiCG:  Solving for T+T, Initial residual = 0.000722505, Final residual = 4.13057e-07, No Iterations 8
ExecutionTime = 0.14 s



Wall heat fluxes [W]
movingWall 0.24951 1.38744e-15 0.949313 1.19882
left 0.281199 1.38744e-16 0.943864 1.22506
right -0.596322 3.00285e-15 -2.03391 -2.63023
bottom -0.250006 0 0.140731 -0.109276
frontAndBack 0 0 0 0
sum -0.315619 4.52903e-15 8.4074e-09 -0.315619


Wall heat fluxes [W]
topAndBottom 0 0 0 0
left 2.68107 0 0 2.68107
right -2.63029 0 0 -2.63029
frontAndBack 0 0 0 0
sum 0.0507811 0 0 0.0507811

Time = 58

DILUPBiCG:  Solving for Ux, Initial residual = 0.00561703, Final residual = 1.73992e-06, No Iterations 2
DILUPBiCG:  Solving for Uy, Initial residual = 0.00917282, Final residual = 1.59707e-06, No Iterations 2
DICPCG:  Solving for p_rgh, Initial residual = 0.0296686, Final residual = 0.000174846, No Iterations 5
time step continuity errors : sum local = 0.000562286, global = -8.99973e-17, cumulative = -1.53858e-15
DILUPBiCG:  Solving for epsilon, Initial residual = 0.00389106, Final residual = 1.72832e-06, No Iterations 2
DILUPBiCG:  Solving for k, Initial residual = 0.010473, Final residual = 7.83856e-05, No Iterations 2
DICPCG:  Solving for G, Initial residual = 0.000396958, Final residual = 2.25152e-05, No Iterations 12
BiCG:  Solving for T+T, Initial residual = 0.000714779, Final residual = 4.0874e-07, No Iterations 8
ExecutionTime = 0.14 s



Wall heat fluxes [W]
movingWall 0.251616 -2.77488e-16 0.950035 1.20165
left 0.28348 0 0.944589 1.22807
right -0.595024 -3.86669e-15 -2.0341 -2.62912
bottom -0.248612 0 0.139474 -0.109139
frontAndBack 0 0 0 0
sum -0.308541 -4.14418e-15 3.86029e-09 -0.308541


Wall heat fluxes [W]
topAndBottom 0 0 0 0
left 2.67561 0 0 2.67561
right -2.62902 0 0 -2.62902
frontAndBack 0 0 0 0
sum 0.0465895 0 0 0.0465895

Time = 59

DILUPBiCG:  Solving for Ux, Initial residual = 0.00560006, Final residual = 1.78291e-06, No Iterations 2
DILUPBiCG:  Solving for Uy, Initial residual = 0.00911989, Final residual = 1.87393e-06, No Iterations 2
DICPCG:  Solving for p_rgh, Initial residual = 0.0298804, Final residual = 0.000175485, No Iterations 5
time step continuity errors : sum local = 0.000527392, global = -1.84759e-16, cumulative = -1.72333e-15
DILUPBiCG:  Solving for epsilon, Initial residual = 0.00375742, Final residual = 1.5939e-06, No Iterations 2
DILUPBiCG:  Solving for k, Initial residual = 0.0100002, Final residual = 1.42773e-06, No Iterations 3
DICPCG:  Solving for G, Initial residual = 0.000367343, Final residual = 3.01795e-05, No Iterations 11
BiCG:  Solving for T+T, Initial residual = 0.000707599, Final residual = 4.04642e-07, No Iterations 8
ExecutionTime = 0.14 s



Wall heat fluxes [W]
movingWall 0.253648 -8.32464e-16 0.950708 1.20436
left 0.28584 -5.54976e-16 0.945264 1.2311
right -0.593834 -9.02393e-15 -2.03427 -2.6281
bottom -0.247309 0 0.138297 -0.109012
frontAndBack 0 0 0 0
sum -0.301655 -1.04114e-14 -9.05918e-08 -0.301655


Wall heat fluxes [W]
topAndBottom 0 0 0 0
left 2.67022 0 0 2.67022
right -2.62787 0 0 -2.62787
frontAndBack 0 0 0 0
sum 0.0423513 0 0 0.0423513

Time = 60

DILUPBiCG:  Solving for Ux, Initial residual = 0.0055819, Final residual = 1.81219e-06, No Iterations 2
DILUPBiCG:  Solving for Uy, Initial residual = 0.00910736, Final residual = 2.15161e-06, No Iterations 2
DICPCG:  Solving for p_rgh, Initial residual = 0.0299868, Final residual = 0.000176021, No Iterations 5
time step continuity errors : sum local = 0.000552159, global = -3.12343e-17, cumulative = -1.75457e-15
DILUPBiCG:  Solving for epsilon, Initial residual = 0.00365629, Final residual = 1.44852e-06, No Iterations 2
DILUPBiCG:  Solving for k, Initial residual = 0.00952419, Final residual = 1.44204e-06, No Iterations 3
DICPCG:  Solving for G, Initial residual = 0.000350624, Final residual = 1.8135e-05, No Iterations 12
BiCG:  Solving for T+T, Initial residual = 0.000697209, Final residual = 4.00813e-07, No Iterations 8
ExecutionTime = 0.14 s



Wall heat fluxes [W]
movingWall 0.255603 8.32464e-16 0.951331 1.20693
left 0.28826 2.77488e-16 0.945889 1.23415
right -0.592755 -3.87083e-15 -2.03442 -2.62717
bottom -0.246075 0 0.137197 -0.108877
frontAndBack 0 0 0 0
sum -0.294967 -2.76088e-15 2.44416e-08 -0.294967


Wall heat fluxes [W]
topAndBottom 0 0 0 0
left 2.66495 0 0 2.66495
right -2.62682 0 0 -2.62682
frontAndBack 0 0 0 0
sum 0.0381295 0 0 0.0381295

Time = 61

DILUPBiCG:  Solving for Ux, Initial residual = 0.00552506, Final residual = 1.82832e-06, No Iterations 2
DILUPBiCG:  Solving for Uy, Initial residual = 0.0089833, Final residual = 2.41325e-06, No Iterations 2
DICPCG:  Solving for p_rgh, Initial residual = 0.0295296, Final residual = 0.000173098, No Iterations 5
time step continuity errors : sum local = 0.000565715, global = 2.10178e-16, cumulative = -1.54439e-15
DILUPBiCG:  Solving for epsilon, Initial residual = 0.00358798, Final residual = 1.31051e-06, No Iterations 2
[...]


Wall heat fluxes [W]
movingWall 0.375476 2.77488e-15 0.974645 1.35012
left 0.377248 -2.35865e-15 0.969302 1.34655
right -0.561393 -3.87541e-15 -2.03295 -2.59434
bottom -0.191331 0 0.0890037 -0.102327
frontAndBack 0 0 0 0
sum -1.52469e-08 -3.45918e-15 6.72185e-13 -1.52462e-08


Wall heat fluxes [W]
topAndBottom 0 0 0 0
left 2.59434 0 0 2.59434
right -2.59434 0 0 -2.59434
frontAndBack 0 0 0 0
sum 1.60398e-09 0 0 1.60398e-09

Time = 986

DILUPBiCG:  Solving for Ux, Initial residual = 1.61713e-10, Final residual = 1.26687e-12, No Iterations 1
DILUPBiCG:  Solving for Uy, Initial residual = 2.46576e-10, Final residual = 8.2535e-14, No Iterations 2
DICPCG:  Solving for p_rgh, Initial residual = 3.0108e-10, Final residual = 1.78885e-12, No Iterations 12
time step continuity errors : sum local = 6.61442e-12, global = -1.48231e-17, cumulative = -4.50565e-15
DILUPBiCG:  Solving for epsilon, Initial residual = 1.96564e-10, Final residual = 5.66371e-14, No Iterations 3
DILUPBiCG:  Solving for k, Initial residual = 3.49718e-10, Final residual = 2.44315e-12, No Iterations 2
DICPCG:  Solving for G, Initial residual = 7.89339e-12, Final residual = 2.18698e-13, No Iterations 11
BiCG:  Solving for T+T, Initial residual = 2.90423e-11, Final residual = 1.15322e-14, No Iterations 8
ExecutionTime = 2.15 s



Wall heat fluxes [W]
movingWall 0.375476 5.54976e-16 0.974645 1.35012
left 0.377248 5.54976e-16 0.969302 1.34655
right -0.561393 -4.33439e-18 -2.03295 -2.59434
bottom -0.191331 0 0.0890037 -0.102327
frontAndBack 0 0 0 0
sum -1.49154e-08 1.10562e-15 6.8473e-14 -1.49153e-08


Wall heat fluxes [W]
topAndBottom 0 0 0 0
left 2.59434 0 0 2.59434
right -2.59434 0 0 -2.59434
frontAndBack 0 0 0 0
sum 1.5669e-09 0 0 1.5669e-09

Time = 987

DILUPBiCG:  Solving for Ux, Initial residual = 1.58165e-10, Final residual = 1.23876e-12, No Iterations 1
DILUPBiCG:  Solving for Uy, Initial residual = 2.41174e-10, Final residual = 8.07498e-14, No Iterations 2
DICPCG:  Solving for p_rgh, Initial residual = 2.94455e-10, Final residual = 1.74974e-12, No Iterations 12
time step continuity errors : sum local = 6.47056e-12, global = 3.17637e-17, cumulative = -4.47388e-15
DILUPBiCG:  Solving for epsilon, Initial residual = 1.92064e-10, Final residual = 5.53617e-14, No Iterations 3
DILUPBiCG:  Solving for k, Initial residual = 3.41681e-10, Final residual = 2.38446e-12, No Iterations 2
DICPCG:  Solving for G, Initial residual = 7.75319e-12, Final residual = 1.96093e-13, No Iterations 11
BiCG:  Solving for T+T, Initial residual = 2.84108e-11, Final residual = 1.13107e-14, No Iterations 8
ExecutionTime = 2.15 s



Wall heat fluxes [W]
movingWall 0.375476 2.2199e-15 0.974645 1.35012
left 0.377248 3.39923e-15 0.969302 1.34655
right -0.561393 -7.31926e-15 -2.03295 -2.59434
bottom -0.191331 0 0.0890037 -0.102327
frontAndBack 0 0 0 0
sum -1.45912e-08 -1.70013e-15 2.82163e-13 -1.45909e-08


Wall heat fluxes [W]
topAndBottom 0 0 0 0
left 2.59434 0 0 2.59434
right -2.59434 0 0 -2.59434
frontAndBack 0 0 0 0
sum 1.53557e-09 0 0 1.53557e-09

Time = 988

DILUPBiCG:  Solving for Ux, Initial residual = 1.54699e-10, Final residual = 1.21127e-12, No Iterations 1
DILUPBiCG:  Solving for Uy, Initial residual = 2.35892e-10, Final residual = 7.90022e-14, No Iterations 2
DICPCG:  Solving for p_rgh, Initial residual = 2.8798e-10, Final residual = 1.71146e-12, No Iterations 12
time step continuity errors : sum local = 6.3292e-12, global = -4.12664e-16, cumulative = -4.88655e-15
DILUPBiCG:  Solving for epsilon, Initial residual = 1.87667e-10, Final residual = 5.41145e-14, No Iterations 3
DILUPBiCG:  Solving for k, Initial residual = 3.33829e-10, Final residual = 2.32717e-12, No Iterations 2
DICPCG:  Solving for G, Initial residual = 7.68998e-12, Final residual = 2.07125e-13, No Iterations 11
BiCG:  Solving for T+T, Initial residual = 2.77927e-11, Final residual = 1.10378e-14, No Iterations 8
ExecutionTime = 2.15 s



Wall heat fluxes [W]
movingWall 0.375476 -5.54976e-16 0.974645 1.35012
left 0.377248 -2.35865e-15 0.969302 1.34655
right -0.561393 -1.5065e-14 -2.03295 -2.59434
bottom -0.191331 0 0.0890037 -0.102327
frontAndBack 0 0 0 0
sum -1.4274e-08 -1.79786e-14 4.37525e-13 -1.42736e-08


Wall heat fluxes [W]
topAndBottom 0 0 0 0
left 2.59434 0 0 2.59434
right -2.59434 0 0 -2.59434
frontAndBack 0 0 0 0
sum 1.50195e-09 0 0 1.50195e-09

Time = 989

DILUPBiCG:  Solving for Ux, Initial residual = 1.51302e-10, Final residual = 1.18438e-12, No Iterations 1
DILUPBiCG:  Solving for Uy, Initial residual = 2.30724e-10, Final residual = 7.72891e-14, No Iterations 2
DICPCG:  Solving for p_rgh, Initial residual = 2.81642e-10, Final residual = 1.67406e-12, No Iterations 12
time step continuity errors : sum local = 6.19013e-12, global = 1.09055e-16, cumulative = -4.77749e-15
DILUPBiCG:  Solving for epsilon, Initial residual = 1.8337e-10, Final residual = 5.28976e-14, No Iterations 3
DILUPBiCG:  Solving for k, Initial residual = 3.26157e-10, Final residual = 2.27128e-12, No Iterations 2
DICPCG:  Solving for G, Initial residual = 7.64445e-12, Final residual = 1.86937e-13, No Iterations 11
BiCG:  Solving for T+T, Initial residual = 2.71878e-11, Final residual = 1.08087e-14, No Iterations 8
ExecutionTime = 2.15 s



Wall heat fluxes [W]
movingWall 0.375476 1.10995e-15 0.974645 1.35012
left 0.377248 6.38222e-15 0.969302 1.34655
right -0.561393 -6.02908e-15 -2.03295 -2.59434
bottom -0.191331 0 0.0890037 -0.102327
frontAndBack 0 0 0 0
sum -1.39635e-08 1.4631e-15 -1.42317e-13 -1.39637e-08


Wall heat fluxes [W]
topAndBottom 0 0 0 0
left 2.59434 0 0 2.59434
right -2.59434 0 0 -2.59434
frontAndBack 0 0 0 0
sum 1.4679e-09 0 0 1.4679e-09

Time = 990

DILUPBiCG:  Solving for Ux, Initial residual = 1.47985e-10, Final residual = 1.15809e-12, No Iterations 1
DILUPBiCG:  Solving for Uy, Initial residual = 2.25669e-10, Final residual = 7.56145e-14, No Iterations 2
DICPCG:  Solving for p_rgh, Initial residual = 2.75444e-10, Final residual = 1.63746e-12, No Iterations 12
time step continuity errors : sum local = 6.05562e-12, global = 7.41154e-17, cumulative = -4.70338e-15
DILUPBiCG:  Solving for epsilon, Initial residual = 1.79172e-10, Final residual = 5.17067e-14, No Iterations 3
DILUPBiCG:  Solving for k, Initial residual = 3.18661e-10, Final residual = 2.21671e-12, No Iterations 2
DICPCG:  Solving for G, Initial residual = 7.29843e-12, Final residual = 1.96276e-13, No Iterations 11
BiCG:  Solving for T+T, Initial residual = 2.65952e-11, Final residual = 1.057e-14, No Iterations 8
ExecutionTime = 2.16 s



Wall heat fluxes [W]
movingWall 0.375476 5.54976e-16 0.974645 1.35012
left 0.377248 -1.59556e-15 0.969302 1.34655
right -0.561393 5.16531e-15 -2.03295 -2.59434
bottom -0.191331 0 0.0890037 -0.102327
frontAndBack 0 0 0 0
sum -1.36599e-08 4.12473e-15 7.32886e-14 -1.36598e-08


Wall heat fluxes [W]
topAndBottom 0 0 0 0
left 2.59434 0 0 2.59434
right -2.59434 0 0 -2.59434
frontAndBack 0 0 0 0
sum 1.43769e-09 0 0 1.43769e-09

Time = 991

DILUPBiCG:  Solving for Ux, Initial residual = 1.4474e-10, Final residual = 1.13238e-12, No Iterations 1
DILUPBiCG:  Solving for Uy, Initial residual = 2.20724e-10, Final residual = 7.39773e-14, No Iterations 2
DICPCG:  Solving for p_rgh, Initial residual = 2.69389e-10, Final residual = 1.60164e-12, No Iterations 12
time step continuity errors : sum local = 5.92231e-12, global = -3.99694e-17, cumulative = -4.74335e-15
DILUPBiCG:  Solving for epsilon, Initial residual = 1.75069e-10, Final residual = 5.05425e-14, No Iterations 3
DILUPBiCG:  Solving for k, Initial residual = 3.11337e-10, Final residual = 2.16345e-12, No Iterations 2
DICPCG:  Solving for G, Initial residual = 7.24424e-12, Final residual = 1.83868e-13, No Iterations 11
BiCG:  Solving for T+T, Initial residual = 2.60167e-11, Final residual = 1.03392e-14, No Iterations 8
ExecutionTime = 2.16 s



Wall heat fluxes [W]
movingWall 0.375476 2.2199e-15 0.974645 1.35012
left 0.377248 -3.26048e-15 0.969302 1.34655
right -0.561393 -3.01124e-15 -2.03295 -2.59434
bottom -0.191331 0 0.0890037 -0.102327
frontAndBack 0 0 0 0
sum -1.33629e-08 -4.05182e-15 3.83915e-13 -1.33625e-08


Wall heat fluxes [W]
topAndBottom 0 0 0 0
left 2.59434 0 0 2.59434
right -2.59434 0 0 -2.59434
frontAndBack 0 0 0 0
sum 1.40573e-09 0 0 1.40573e-09

Time = 992

DILUPBiCG:  Solving for Ux, Initial residual = 1.41563e-10, Final residual = 1.10724e-12, No Iterations 1
DILUPBiCG:  Solving for Uy, Initial residual = 2.15888e-10, Final residual = 7.23726e-14, No Iterations 2
DICPCG:  Solving for p_rgh, Initial residual = 2.63456e-10, Final residual = 1.5666e-12, No Iterations 12
time step continuity errors : sum local = 5.79293e-12, global = 1.90582e-17, cumulative = -4.72429e-15
DILUPBiCG:  Solving for epsilon, Initial residual = 1.7106e-10, Final residual = 4.94048e-14, No Iterations 3
DILUPBiCG:  Solving for k, Initial residual = 3.04182e-10, Final residual = 2.11148e-12, No Iterations 2
DICPCG:  Solving for G, Initial residual = 7.0185e-12, Final residual = 1.71744e-13, No Iterations 11
BiCG:  Solving for T+T, Initial residual = 2.54501e-11, Final residual = 1.01224e-14, No Iterations 8
ExecutionTime = 2.16 s



Wall heat fluxes [W]
movingWall 0.375476 2.2199e-15 0.974645 1.35012
left 0.377248 -3.39923e-15 0.969302 1.34655
right -0.561393 -4.93479e-19 -2.03295 -2.59434
bottom -0.191331 0 0.0890037 -0.102327
frontAndBack 0 0 0 0
sum -1.30722e-08 -1.17982e-15 2.98678e-13 -1.30719e-08


Wall heat fluxes [W]
topAndBottom 0 0 0 0
left 2.59434 0 0 2.59434
right -2.59434 0 0 -2.59434
frontAndBack 0 0 0 0
sum 1.37562e-09 0 0 1.37562e-09

Time = 993

DILUPBiCG:  Solving for Ux, Initial residual = 1.38458e-10, Final residual = 1.08266e-12, No Iterations 1
DILUPBiCG:  Solving for Uy, Initial residual = 2.11156e-10, Final residual = 7.08044e-14, No Iterations 2
DICPCG:  Solving for p_rgh, Initial residual = 2.57656e-10, Final residual = 1.53233e-12, No Iterations 12
time step continuity errors : sum local = 5.66632e-12, global = -4.07635e-17, cumulative = -4.76505e-15
DILUPBiCG:  Solving for epsilon, Initial residual = 1.67143e-10, Final residual = 4.82924e-14, No Iterations 3
DILUPBiCG:  Solving for k, Initial residual = 2.9719e-10, Final residual = 2.06075e-12, No Iterations 2
DICPCG:  Solving for G, Initial residual = 6.78544e-12, Final residual = 2.01435e-13, No Iterations 11
BiCG:  Solving for T+T, Initial residual = 2.48956e-11, Final residual = 9.90317e-15, No Iterations 8
ExecutionTime = 2.16 s



Wall heat fluxes [W]
movingWall 0.375476 1.66493e-15 0.974645 1.35012
left 0.377248 -5.13353e-15 0.969302 1.34655
right -0.561393 6.02693e-15 -2.03295 -2.59434
bottom -0.191331 0 0.0890037 -0.102327
frontAndBack 0 0 0 0
sum -1.27878e-08 2.55833e-15 1.61635e-13 -1.27876e-08


Wall heat fluxes [W]
topAndBottom 0 0 0 0
left 2.59434 0 0 2.59434
right -2.59434 0 0 -2.59434
frontAndBack 0 0 0 0
sum 1.34432e-09 0 0 1.34432e-09

Time = 994

DILUPBiCG:  Solving for Ux, Initial residual = 1.3542e-10, Final residual = 1.05862e-12, No Iterations 1
DILUPBiCG:  Solving for Uy, Initial residual = 2.06528e-10, Final residual = 6.92726e-14, No Iterations 2
DICPCG:  Solving for p_rgh, Initial residual = 2.51987e-10, Final residual = 1.49882e-12, No Iterations 12
time step continuity errors : sum local = 5.54322e-12, global = -1.92171e-16, cumulative = -4.95722e-15
DILUPBiCG:  Solving for epsilon, Initial residual = 1.63315e-10, Final residual = 4.72056e-14, No Iterations 3
DILUPBiCG:  Solving for k, Initial residual = 2.90359e-10, Final residual = 2.01124e-12, No Iterations 2
DICPCG:  Solving for G, Initial residual = 6.79386e-12, Final residual = 1.66468e-13, No Iterations 11
BiCG:  Solving for T+T, Initial residual = 2.43543e-11, Final residual = 9.6596e-15, No Iterations 8
ExecutionTime = 2.17 s



Wall heat fluxes [W]
movingWall 0.375476 2.77488e-15 0.974645 1.35012
left 0.377248 -2.2199e-15 0.969302 1.34655
right -0.561393 -1.03281e-14 -2.03295 -2.59434
bottom -0.191331 0 0.0890037 -0.102327
frontAndBack 0 0 0 0
sum -1.25096e-08 -9.77314e-15 1.8191e-13 -1.25094e-08


Wall heat fluxes [W]
topAndBottom 0 0 0 0
left 2.59434 0 0 2.59434
right -2.59434 0 0 -2.59434
frontAndBack 0 0 0 0
sum 1.31553e-09 0 0 1.31553e-09

Time = 995

DILUPBiCG:  Solving for Ux, Initial residual = 1.32449e-10, Final residual = 1.03511e-12, No Iterations 1
DILUPBiCG:  Solving for Uy, Initial residual = 2.02001e-10, Final residual = 6.77687e-14, No Iterations 2
DICPCG:  Solving for p_rgh, Initial residual = 2.46439e-10, Final residual = 1.46603e-12, No Iterations 12
time step continuity errors : sum local = 5.42145e-12, global = 2.017e-16, cumulative = -4.75552e-15
DILUPBiCG:  Solving for epsilon, Initial residual = 1.59575e-10, Final residual = 4.6143e-14, No Iterations 3
DILUPBiCG:  Solving for k, Initial residual = 2.83685e-10, Final residual = 1.96292e-12, No Iterations 2
DICPCG:  Solving for G, Initial residual = 6.62415e-12, Final residual = 1.80154e-13, No Iterations 11
BiCG:  Solving for T+T, Initial residual = 2.38231e-11, Final residual = 9.47897e-15, No Iterations 8
ExecutionTime = 2.17 s



Wall heat fluxes [W]
movingWall 0.375476 5.54976e-16 0.974645 1.35012
left 0.377248 -2.08116e-16 0.969302 1.34655
right -0.561393 1.0332e-14 -2.03295 -2.59434
bottom -0.191331 0 0.0890037 -0.102327
frontAndBack 0 0 0 0
sum -1.22374e-08 1.06789e-14 8.33361e-14 -1.22373e-08


Wall heat fluxes [W]
topAndBottom 0 0 0 0
left 2.59434 0 0 2.59434
right -2.59434 0 0 -2.59434
frontAndBack 0 0 0 0
sum 1.28826e-09 0 0 1.28826e-09

Time = 996

DILUPBiCG:  Solving for Ux, Initial residual = 1.29543e-10, Final residual = 1.01214e-12, No Iterations 1
DILUPBiCG:  Solving for Uy, Initial residual = 1.97573e-10, Final residual = 6.63018e-14, No Iterations 2
DICPCG:  Solving for p_rgh, Initial residual = 2.41017e-10, Final residual = 1.43395e-12, No Iterations 12
time step continuity errors : sum local = 5.30194e-12, global = 8.89385e-17, cumulative = -4.66658e-15
DILUPBiCG:  Solving for epsilon, Initial residual = 1.55921e-10, Final residual = 4.51047e-14, No Iterations 3
DILUPBiCG:  Solving for k, Initial residual = 2.77164e-10, Final residual = 1.91574e-12, No Iterations 2
DICPCG:  Solving for G, Initial residual = 6.49032e-12, Final residual = 1.57021e-13, No Iterations 11
BiCG:  Solving for T+T, Initial residual = 2.33043e-11, Final residual = 9.25631e-15, No Iterations 8
ExecutionTime = 2.17 s



Wall heat fluxes [W]
movingWall 0.375476 -5.54976e-16 0.974645 1.35012
left 0.377248 1.52618e-15 0.969302 1.34655
right -0.561393 3.44815e-15 -2.03295 -2.59434
bottom -0.191331 0 0.0890037 -0.102327
frontAndBack 0 0 0 0
sum -1.19711e-08 4.41935e-15 2.41168e-13 -1.19708e-08


Wall heat fluxes [W]
topAndBottom 0 0 0 0
left 2.59434 0 0 2.59434
right -2.59434 0 0 -2.59434
frontAndBack 0 0 0 0
sum 1.25817e-09 0 0 1.25817e-09

Time = 997

DILUPBiCG:  Solving for Ux, Initial residual = 1.26698e-10, Final residual = 9.89658e-13, No Iterations 1
DILUPBiCG:  Solving for Uy, Initial residual = 1.93241e-10, Final residual = 6.48632e-14, No Iterations 2
DICPCG:  Solving for p_rgh, Initial residual = 2.3571e-10, Final residual = 1.40258e-12, No Iterations 12
time step continuity errors : sum local = 5.18668e-12, global = -3.59989e-16, cumulative = -5.02657e-15
DILUPBiCG:  Solving for epsilon, Initial residual = 1.5235e-10, Final residual = 4.40916e-14, No Iterations 3
DILUPBiCG:  Solving for k, Initial residual = 2.70792e-10, Final residual = 1.86972e-12, No Iterations 2
DICPCG:  Solving for G, Initial residual = 6.40911e-12, Final residual = 1.66014e-13, No Iterations 11
BiCG:  Solving for T+T, Initial residual = 2.27967e-11, Final residual = 9.07257e-15, No Iterations 8
ExecutionTime = 2.17 s



Wall heat fluxes [W]
movingWall 0.375476 -3.32986e-15 0.974645 1.35012
left 0.377248 -4.16232e-15 0.969302 1.34655
right -0.561393 -5.5996e-15 -2.03295 -2.59434
bottom -0.191331 0 0.0890037 -0.102327
frontAndBack 0 0 0 0
sum -1.17105e-08 -1.30918e-14 2.44707e-13 -1.17103e-08


Wall heat fluxes [W]
topAndBottom 0 0 0 0
left 2.59434 0 0 2.59434
right -2.59434 0 0 -2.59434
frontAndBack 0 0 0 0
sum 1.23286e-09 0 0 1.23286e-09

Time = 998

DILUPBiCG:  Solving for Ux, Initial residual = 1.23919e-10, Final residual = 9.67676e-13, No Iterations 1
DILUPBiCG:  Solving for Uy, Initial residual = 1.89005e-10, Final residual = 6.34581e-14, No Iterations 2
DICPCG:  Solving for p_rgh, Initial residual = 2.3052e-10, Final residual = 1.37188e-12, No Iterations 12
time step continuity errors : sum local = 5.07367e-12, global = -1.81318e-16, cumulative = -5.20789e-15
DILUPBiCG:  Solving for epsilon, Initial residual = 1.4886e-10, Final residual = 4.31022e-14, No Iterations 3
DILUPBiCG:  Solving for k, Initial residual = 2.64567e-10, Final residual = 1.82478e-12, No Iterations 2
DICPCG:  Solving for G, Initial residual = 6.31864e-12, Final residual = 1.71403e-13, No Iterations 11
BiCG:  Solving for T+T, Initial residual = 2.23004e-11, Final residual = 8.87183e-15, No Iterations 8
ExecutionTime = 2.17 s



Wall heat fluxes [W]
movingWall 0.375476 0 0.974645 1.35012
left 0.377248 -4.57855e-15 0.969302 1.34655
right -0.561393 -1.7244e-15 -2.03295 -2.59434
bottom -0.191331 0 0.0890037 -0.102327
frontAndBack 0 0 0 0
sum -1.14556e-08 -6.30296e-15 6.60028e-14 -1.14556e-08


Wall heat fluxes [W]
topAndBottom 0 0 0 0
left 2.59434 0 0 2.59434
right -2.59434 0 0 -2.59434
frontAndBack 0 0 0 0
sum 1.20466e-09 0 0 1.20466e-09

Time = 999

DILUPBiCG:  Solving for Ux, Initial residual = 1.21196e-10, Final residual = 9.46188e-13, No Iterations 1
DILUPBiCG:  Solving for Uy, Initial residual = 1.84859e-10, Final residual = 6.20813e-14, No Iterations 2
DICPCG:  Solving for p_rgh, Initial residual = 2.25444e-10, Final residual = 1.34184e-12, No Iterations 12
time step continuity errors : sum local = 4.96232e-12, global = 1.32084e-16, cumulative = -5.07581e-15
DILUPBiCG:  Solving for epsilon, Initial residual = 1.45451e-10, Final residual = 4.21356e-14, No Iterations 3
DILUPBiCG:  Solving for k, Initial residual = 2.58485e-10, Final residual = 1.78093e-12, No Iterations 2
DICPCG:  Solving for G, Initial residual = 6.12421e-12, Final residual = 1.46214e-13, No Iterations 11
BiCG:  Solving for T+T, Initial residual = 2.18137e-11, Final residual = 8.67153e-15, No Iterations 8
ExecutionTime = 2.18 s



Wall heat fluxes [W]
movingWall 0.375476 -5.54976e-16 0.974645 1.35012
left 0.377248 2.49739e-15 0.969302 1.34655
right -0.561393 4.29898e-15 -2.03295 -2.59434
bottom -0.191331 0 0.0890037 -0.102327
frontAndBack 0 0 0 0
sum -1.12062e-08 6.2414e-15 5.12368e-14 -1.12062e-08


Wall heat fluxes [W]
topAndBottom 0 0 0 0
left 2.59434 0 0 2.59434
right -2.59434 0 0 -2.59434
frontAndBack 0 0 0 0
sum 1.17707e-09 0 0 1.17707e-09

Time = 1000

DILUPBiCG:  Solving for Ux, Initial residual = 1.18537e-10, Final residual = 9.2517e-13, No Iterations 1
DILUPBiCG:  Solving for Uy, Initial residual = 1.80805e-10, Final residual = 6.07332e-14, No Iterations 2
DICPCG:  Solving for p_rgh, Initial residual = 2.20477e-10, Final residual = 1.31246e-12, No Iterations 12
time step continuity errors : sum local = 4.8537e-12, global = 7.19978e-17, cumulative = -5.00381e-15
DILUPBiCG:  Solving for epsilon, Initial residual = 1.42119e-10, Final residual = 4.11894e-14, No Iterations 3
DILUPBiCG:  Solving for k, Initial residual = 2.52547e-10, Final residual = 1.73814e-12, No Iterations 2
DICPCG:  Solving for G, Initial residual = 6.07594e-12, Final residual = 1.52119e-13, No Iterations 11
BiCG:  Solving for T+T, Initial residual = 2.13382e-11, Final residual = 8.47721e-15, No Iterations 8
ExecutionTime = 2.18 s



Wall heat fluxes [W]
movingWall 0.375476 -1.66493e-15 0.974645 1.35012
left 0.377248 4.16232e-15 0.969302 1.34655
right -0.561393 -8.62182e-16 -2.03295 -2.59434
bottom -0.191331 0 0.0890037 -0.102327
frontAndBack 0 0 0 0
sum -1.09623e-08 1.63521e-15 6.03115e-13 -1.09617e-08


Wall heat fluxes [W]
topAndBottom 0 0 0 0
left 2.59434 0 0 2.59434
right -2.59434 0 0 -2.59434
frontAndBack 0 0 0 0
sum 1.15605e-09 0 0 1.15605e-09

End

