/*---------------------------------------------------------------------------*\
| =========                 |                                                 |
| \\      /  F ield         | OpenFOAM Extend Project: Open source CFD        |
|  \\    /   O peration     | Version:  1.6-ext                               |
|   \\  /    A nd           | Web:      www.extend-project.de                 |
|    \\/     M anipulation  |                                                 |
\*---------------------------------------------------------------------------*/
Build  : 1.6-ext-daa8fb2a98e6
Exec   : chipAirCoolingSimpleFoam
Date   : Nov 29 2011
Time   : 22:18:12
Host   : ubuntu
PID    : 1420
Case   : /home/user/ChipAirCoolingClient/run/cabin
nProcs : 1
SigFpe : Enabling floating point exception trapping (FOAM_SIGFPE).

// * * * * * * * * * * * * * * * * * * * * * * * * * * * * * * * * * * * * * //
Create time

Create mesh for time = 0


Reading g
Reading transportProperties

Calculating field g.h

Reading field p_rgh

Reading field U

Reading field T

Reading/calculating face flux field phi

Selecting incompressible transport model Newtonian
Selecting RAS turbulence model kOmegaSST
kOmegaSSTCoeffs
{
    alphaK1         0.85034;
    alphaK2         1;
    alphaOmega1     0.5;
    alphaOmega2     0.85616;
    gamma1          0.5532;
    gamma2          0.4403;
    beta1           0.075;
    beta2           0.0828;
    betaStar        0.09;
    a1              0.31;
    c1              10;
}

Reading field kappaEff

Creating radiation model

Selecting radiationModel none
Reading field Tsolid

Reading solid thermal properties
Selecting thermal model multiMaterialZones
Selecting thermal model constant
Selecting thermal model constant
Reading solid diffusivity k


Starting time loop

Time = 1

DILUPBiCG:  Solving for Ux, Initial residual = 1, Final residual = 3.84661e-05, No Iterations 1
DILUPBiCG:  Solving for Uy, Initial residual = 1, Final residual = 0.000114641, No Iterations 2
DICPCG:  Solving for p_rgh, Initial residual = 1, Final residual = 0.000981072, No Iterations 489
time step continuity errors : sum local = 2.7743e-05, global = 4.67599e-08, cumulative = 4.67599e-08
DILUPBiCG:  Solving for omega, Initial residual = 0.736091, Final residual = 0.00125709, No Iterations 1
DILUPBiCG:  Solving for k, Initial residual = 1, Final residual = 0.00263938, No Iterations 1
Before T+T solve
BiCG:  Solving for T+T, Initial residual = 0.00080898, Final residual = 6.17924e-07, No Iterations 12
Tres = -100.498
TsRes = 0.531925
ExecutionTime = 1.09 s



Wall heat fluxes [W]
cabHeatTransmissiveWall -4.4572 0 0 -4.4572
bayHeatTransmissiveWall 4.39202 0 0 4.39202
walls 0 0 0 0
topExtWall 3.06364 -2.17678e-13 0 3.06364
toSolidR 0.00508965 0 0 0.00508965
cabInlet 7.90961e-14 -2358.34 0 -2358.34
toSolidL 0.00530808 0 0 0.00530808
passengers -53.3965 0 0 -53.3965
bottomExtWall 30.4597 0 0 30.4597
core2 -35.4525 0 0 -35.4525
core1 -44.7023 0 0 -44.7023
bayInletL -1.35697e-07 -2431.67 0 -2431.67
bayInletR -1.80507e-07 -2431.67 0 -2431.67
cabOutletL 0 1159.22 0 1159.22
cabOutletR 0 1199.14 0 1199.14
bayOutletL 0 2382.96 0 2382.96
bayOutletR 0 2480.35 0 2480.35
defaultFaces 0 0 0 0
sum -100.083 0.00815606 0 -100.075


Wall heat fluxes [W]
topExtWall 0.0541869 0 0 0.0541869
toFluidR -0.0187957 0 0 -0.0187957
toFluidL -0.0183379 0 0 -0.0183379
defaultFaces 0 0 0 0
sum 0.0170533 0 0 0.0170533

Time = 2

DILUPBiCG:  Solving for Ux, Initial residual = 0.413996, Final residual = 3.75139e-05, No Iterations 2
DILUPBiCG:  Solving for Uy, Initial residual = 0.568689, Final residual = 4.14949e-05, No Iterations 2
DICPCG:  Solving for p_rgh, Initial residual = 0.2701, Final residual = 0.000239988, No Iterations 505
time step continuity errors : sum local = 0.00041819, global = 6.64435e-07, cumulative = 7.11195e-07
DILUPBiCG:  Solving for omega, Initial residual = 0.0375787, Final residual = 0.000264516, No Iterations 2
DILUPBiCG:  Solving for k, Initial residual = 0.488723, Final residual = 0.00259, No Iterations 2
Before T+T solve
BiCG:  Solving for T+T, Initial residual = 0.0010019, Final residual = 8.73371e-07, No Iterations 14
Tres = -85.8778
TsRes = 0.426819
ExecutionTime = 1.78 s



Wall heat fluxes [W]
cabHeatTransmissiveWall -4.64905 -1.08299e-14 0 -4.64905
bayHeatTransmissiveWall 4.62722 3.41167e-14 0 4.62722
walls 0 0 0 0
topExtWall 15.0181 -1.00526e-13 0 15.0181
toSolidR -0.0750804 -5.05479e-16 0 -0.0750804
cabInlet -4.59491e-14 -2358.34 0 -2358.34
toSolidL -0.0748495 -4.69323e-16 0 -0.0748495
passengers -55.2345 -6.40962e-14 0 -55.2345
bottomExtWall 37.3838 1.86644e-14 0 37.3838
core2 -36.7756 -1.1959e-13 0 -36.7756
core1 -46.1507 7.17255e-13 0 -46.1507
bayInletL -2.24078e-07 -2431.67 0 -2431.67
bayInletR -2.64203e-07 -2431.67 0 -2431.67
cabOutletL 0 1168.73 0 1168.73
cabOutletR 0 1189.83 0 1189.83
bayOutletL 0 2395.04 0 2395.04
bayOutletR 0 2468.23 0 2468.23
defaultFaces 0 0 0 0
sum -85.9307 0.171609 0 -85.7591


Wall heat fluxes [W]
topExtWall 0.136331 0 0 0.136331
toFluidR -0.0491793 0 0 -0.0491793
toFluidL -0.0483837 0 0 -0.0483837
defaultFaces 0 0 0 0
sum 0.0387681 0 0 0.0387681

Time = 3

DILUPBiCG:  Solving for Ux, Initial residual = 0.190421, Final residual = 1.87082e-05, No Iterations 2
DILUPBiCG:  Solving for Uy, Initial residual = 0.268664, Final residual = 2.03143e-05, No Iterations 2
DICPCG:  Solving for p_rgh, Initial residual = 0.216011, Final residual = 0.000211175, No Iterations 519
time step continuity errors : sum local = 0.000306004, global = 2.84464e-07, cumulative = 9.9566e-07
DILUPBiCG:  Solving for omega, Initial residual = 0.0258672, Final residual = 0.000191291, No Iterations 2
DILUPBiCG:  Solving for k, Initial residual = 0.204982, Final residual = 0.00109949, No Iterations 2
Before T+T solve
BiCG:  Solving for T+T, Initial residual = 0.00102148, Final residual = 9.00445e-07, No Iterations 15
Tres = -83.1924
TsRes = 0.338987
ExecutionTime = 2.5 s



Wall heat fluxes [W]
cabHeatTransmissiveWall -4.59079 1.09556e-14 0 -4.59079
bayHeatTransmissiveWall 4.56392 7.64021e-15 0 4.56392
walls 0 0 0 0
topExtWall 17.7628 1.00517e-13 0 17.7628
toSolidR -0.104619 3.17897e-15 0 -0.104619
cabInlet -9.39207e-10 -2358.34 0 -2358.34
toSolidL -0.101233 8.6629e-15 0 -0.101233
passengers -56.0674 -4.11508e-13 0 -56.0674
bottomExtWall 39.0195 -3.30441e-14 0 39.0195
core2 -37.1599 -5.85119e-13 0 -37.1599
core1 -46.6026 -1.9895e-15 0 -46.6026
bayInletL -6.48554e-07 -2431.67 0 -2431.67
bayInletR -9.64138e-07 -2431.67 0 -2431.67
cabOutletL 0 1168.33 0 1168.33
cabOutletR 0 1189.87 0 1189.87
bayOutletL 0 2402.12 0 2402.12
bayOutletR 0 2461.37 0 2461.37
defaultFaces 0 0 0 0
sum -83.2803 0.0213699 0 -83.2589


Wall heat fluxes [W]
topExtWall 0.172763 0 0 0.172763
toFluidR -0.0612621 0 0 -0.0612621
toFluidL -0.0605684 0 0 -0.0605684
defaultFaces 0 0 0 0
sum 0.0509329 0 0 0.0509329

Time = 4

DILUPBiCG:  Solving for Ux, Initial residual = 0.0381108, Final residual = 5.16015e-06, No Iterations 2
DILUPBiCG:  Solving for Uy, Initial residual = 0.0395091, Final residual = 8.95768e-06, No Iterations 2
DICPCG:  Solving for p_rgh, Initial residual = 0.297184, Final residual = 0.000295696, No Iterations 484
time step continuity errors : sum local = 0.000219376, global = -1.43223e-06, cumulative = -4.36573e-07
DILUPBiCG:  Solving for omega, Initial residual = 0.0167402, Final residual = 2.31787e-06, No Iterations 4
DILUPBiCG:  Solving for k, Initial residual = 0.140002, Final residual = 0.000726761, No Iterations 2
Before T+T solve
BiCG:  Solving for T+T, Initial residual = 0.000976378, Final residual = 8.63563e-07, No Iterations 15
Tres = -84.2697
TsRes = 0.261996
ExecutionTime = 3.18 s



Wall heat fluxes [W]
cabHeatTransmissiveWall -4.43513 9.50883e-15 0 -4.43513
bayHeatTransmissiveWall 4.4201 7.3676e-15 0 4.4201
walls 0 0 0 0
topExtWall 18.1977 -1.19427e-13 0 18.1977
toSolidR -0.0957395 -6.47546e-14 0 -0.0957395
cabInlet -2.29813e-08 -2358.34 0 -2358.34
toSolidL -0.0971723 2.31279e-15 0 -0.0971723
passengers -56.4863 -5.62708e-13 0 -56.4863
bottomExtWall 38.9713 -1.76626e-13 0 38.9713
core2 -37.4061 -4.36615e-15 0 -37.4061
core1 -46.8894 2.1282e-13 0 -46.8894
bayInletL -6.82266e-06 -2431.67 0 -2431.67
bayInletR -6.24968e-06 -2431.67 0 -2431.67
cabOutletL 0 1168.71 0 1168.71
cabOutletR 0 1189.61 0 1189.61
bayOutletL 0 2408.25 0 2408.25
bayOutletR 0 2454.5 0 2454.5
defaultFaces 0 0 0 0
sum -83.8208 -0.587097 0 -84.4079


Wall heat fluxes [W]
topExtWall 0.192314 0 0 0.192314
toFluidR -0.0733519 0 0 -0.0733519
toFluidL -0.0731963 0 0 -0.0731963
defaultFaces 0 0 0 0
sum 0.0457656 0 0 0.0457656

Time = 5

DILUPBiCG:  Solving for Ux, Initial residual = 0.10107, Final residual = 1.00559e-05, No Iterations 2
DILUPBiCG:  Solving for Uy, Initial residual = 0.136174, Final residual = 1.27082e-05, No Iterations 2
DICPCG:  Solving for p_rgh, Initial residual = 0.308054, Final residual = 0.000294456, No Iterations 387
time step continuity errors : sum local = 0.000216426, global = -7.88998e-06, cumulative = -8.32655e-06
DILUPBiCG:  Solving for omega, Initial residual = 0.0116445, Final residual = 9.43823e-05, No Iterations 2
DILUPBiCG:  Solving for k, Initial residual = 0.0940419, Final residual = 0.000526556, No Iterations 2
Before T+T solve
BiCG:  Solving for T+T, Initial residual = 0.000952336, Final residual = 9.33009e-07, No Iterations 14
Tres = -87.355
TsRes = 0.200781
ExecutionTime = 3.77 s



Wall heat fluxes [W]
cabHeatTransmissiveWall -4.32431 2.45482e-15 0 -4.32431
bayHeatTransmissiveWall 4.30582 -5.87103e-16 0 4.30582
walls 0 0 0 0
topExtWall 18.0522 3.38952e-13 0 18.0522
toSolidR -0.076099 2.66842e-14 0 -0.076099
cabInlet -1.2311e-07 -2358.34 0 -2358.34
toSolidL -0.0835312 -9.1931e-14 0 -0.0835312
passengers -56.751 4.97111e-13 0 -56.751
bottomExtWall 38.568 -2.18583e-14 0 38.568
core2 -37.4721 3.89595e-13 0 -37.4721
core1 -47.0569 -3.88201e-13 0 -47.0569
bayInletL -2.13106e-05 -2431.67 0 -2431.67
bayInletR -5.30733e-06 -2431.67 0 -2431.67
cabOutletL 0 1169.62 0 1169.62
cabOutletR 0 1189.26 0 1189.26
bayOutletL 0 2411.13 0 2411.13
bayOutletR 0 2448.96 0 2448.96
defaultFaces 0 0 0 0
sum -84.838 -2.6968 0 -87.5348


Wall heat fluxes [W]
topExtWall 0.202477 0 0 0.202477
toFluidR -0.0830089 0 0 -0.0830089
toFluidL -0.083027 0 0 -0.083027
defaultFaces 0 0 0 0
sum 0.0364406 0 0 0.0364406

Time = 6

DILUPBiCG:  Solving for Ux, Initial residual = 0.0754478, Final residual = 8.29777e-06, No Iterations 2
DILUPBiCG:  Solving for Uy, Initial residual = 0.103381, Final residual = 9.35914e-06, No Iterations 2
DICPCG:  Solving for p_rgh, Initial residual = 0.226335, Final residual = 0.000210447, No Iterations 507
time step continuity errors : sum local = 0.000133052, global = 8.8938e-08, cumulative = -8.23761e-06
DILUPBiCG:  Solving for omega, Initial residual = 0.00944828, Final residual = 7.41207e-05, No Iterations 2
DILUPBiCG:  Solving for k, Initial residual = 0.066962, Final residual = 0.00040102, No Iterations 2
Before T+T solve
BiCG:  Solving for T+T, Initial residual = 0.00094596, Final residual = 8.85469e-07, No Iterations 13
Tres = -86.1397
TsRes = 0.152727
ExecutionTime = 4.45 s



Wall heat fluxes [W]
cabHeatTransmissiveWall -4.26653 -4.67516e-15 0 -4.26653
bayHeatTransmissiveWall 4.2448 2.33509e-15 0 4.2448
walls 0 0 0 0
topExtWall 17.8584 -4.82702e-13 0 17.8584
toSolidR -0.0539071 -3.46148e-15 0 -0.0539071
cabInlet -4.12828e-07 -2358.34 0 -2358.34
toSolidL -0.0623729 -1.4192e-13 0 -0.0623729
passengers -56.9814 2.51381e-13 0 -56.9814
bottomExtWall 38.1314 4.15459e-13 0 38.1314
core2 -37.5839 -2.61085e-13 0 -37.5839
core1 -47.2218 6.83304e-13 0 -47.2218
bayInletL -4.62641e-05 -2431.67 0 -2431.67
bayInletR -8.52539e-06 -2431.67 0 -2431.67
cabOutletL 0 1170.2 0 1170.2
cabOutletR 0 1188.26 0 1188.26
bayOutletL 0 2413.53 0 2413.53
bayOutletR 0 2449.27 0 2449.27
defaultFaces 0 0 0 0
sum -85.9353 -0.397117 0 -86.3324


Wall heat fluxes [W]
topExtWall 0.207491 0 0 0.207491
toFluidR -0.0899383 0 0 -0.0899383
toFluidL -0.0898157 0 0 -0.0898157
defaultFaces 0 0 0 0
sum 0.0277373 0 0 0.0277373

Time = 7

DILUPBiCG:  Solving for Ux, Initial residual = 0.0197132, Final residual = 4.3669e-06, No Iterations 2
DILUPBiCG:  Solving for Uy, Initial residual = 0.0196338, Final residual = 5.09554e-06, No Iterations 2
DICPCG:  Solving for p_rgh, Initial residual = 0.189701, Final residual = 0.000187775, No Iterations 508
time step continuity errors : sum local = 8.37167e-05, global = -5.23437e-07, cumulative = -8.76105e-06
DILUPBiCG:  Solving for omega, Initial residual = 0.00815023, Final residual = 6.30413e-05, No Iterations 2
DILUPBiCG:  Solving for k, Initial residual = 0.0520133, Final residual = 0.000392615, No Iterations 2
Before T+T solve
BiCG:  Solving for T+T, Initial residual = 0.000949281, Final residual = 9.3415e-07, No Iterations 12
Tres = -87.5589
TsRes = 0.115102
ExecutionTime = 5.14 s



Wall heat fluxes [W]
cabHeatTransmissiveWall -4.23279 1.43105e-14 0 -4.23279
bayHeatTransmissiveWall 4.21232 2.32362e-14 0 4.21232
walls 0 0 0 0
topExtWall 17.606 1.12177e-13 0 17.606
toSolidR -0.0315177 3.32328e-15 0 -0.0315177
cabInlet -1.13646e-06 -2358.34 0 -2358.34
toSolidL -0.0427544 -1.13594e-14 0 -0.0427544
passengers -57.1591 4.28705e-13 0 -57.1591
bottomExtWall 37.7081 1.18561e-13 0 37.7081
core2 -37.7082 3.89923e-13 0 -37.7082
core1 -47.3336 -2.08487e-13 0 -47.3336
bayInletL -8.43754e-05 -2431.67 0 -2431.67
bayInletR -1.36307e-05 -2431.67 0 -2431.67
cabOutletL 0 1170.16 0 1170.16
cabOutletR 0 1188.07 0 1188.07
bayOutletL 0 2413.69 0 2413.69
bayOutletR 0 2448.98 0 2448.98
defaultFaces 0 0 0 0
sum -86.9817 -0.765826 0 -87.7475


Wall heat fluxes [W]
topExtWall 0.208969 0 0 0.208969
toFluidR -0.0947123 0 0 -0.0947123
toFluidL -0.0947442 0 0 -0.0947442
defaultFaces 0 0 0 0
sum 0.0195129 0 0 0.0195129

Time = 8

DILUPBiCG:  Solving for Ux, Initial residual = 0.0284155, Final residual = 3.13347e-06, No Iterations 2
DILUPBiCG:  Solving for Uy, Initial residual = 0.0377575, Final residual = 3.7514e-06, No Iterations 2
DICPCG:  Solving for p_rgh, Initial residual = 0.15874, Final residual = 0.000158333, No Iterations 356
time step continuity errors : sum local = 8.40291e-05, global = -2.34602e-06, cumulative = -1.11071e-05
DILUPBiCG:  Solving for omega, Initial residual = 0.0072204, Final residual = 5.76743e-05, No Iterations 2
DILUPBiCG:  Solving for k, Initial residual = 0.042584, Final residual = 0.000253991, No Iterations 2
Before T+T solve
BiCG:  Solving for T+T, Initial residual = 0.000953011, Final residual = 9.2173e-07, No Iterations 11
Tres = -89.2207
TsRes = 0.0867546
ExecutionTime = 5.65 s



Wall heat fluxes [W]
cabHeatTransmissiveWall -4.19688 -5.56171e-15 0 -4.19688
bayHeatTransmissiveWall 4.18813 1.20365e-14 0 4.18813
walls 0 0 0 0
topExtWall 17.3946 -2.09527e-12 0 17.3946
toSolidR -0.0101992 -2.05937e-15 0 -0.0101992
cabInlet -2.99012e-06 -2358.34 0 -2358.34
toSolidL -0.0204925 1.44769e-13 0 -0.0204925
passengers -57.3061 -2.38198e-13 0 -57.3061
bottomExtWall 37.3091 -8.19936e-13 0 37.3091
core2 -37.789 -1.67896e-12 0 -37.789
core1 -47.4042 -1.07882e-12 0 -47.4042
bayInletL -0.00013969 -2431.67 0 -2431.67
bayInletR -2.67257e-05 -2431.67 0 -2431.67
cabOutletL 0 1170.41 0 1170.41
cabOutletR 0 1187.98 0 1187.98
bayOutletL 0 2413.84 0 2413.84
bayOutletR 0 2447.89 0 2447.89
defaultFaces 0 0 0 0
sum -87.8352 -1.5478 0 -89.383


Wall heat fluxes [W]
topExtWall 0.209579 0 0 0.209579
toFluidR -0.0978748 0 0 -0.0978748
toFluidL -0.0977572 0 0 -0.0977572
defaultFaces 0 0 0 0
sum 0.0139469 0 0 0.0139469

Time = 9

DILUPBiCG:  Solving for Ux, Initial residual = 0.0203934, Final residual = 2.40612e-06, No Iterations 2
DILUPBiCG:  Solving for Uy, Initial residual = 0.0264447, Final residual = 3.04369e-06, No Iterations 2
DICPCG:  Solving for p_rgh, Initial residual = 0.111188, Final residual = 0.000111006, No Iterations 513
time step continuity errors : sum local = 5.93137e-05, global = 1.97488e-08, cumulative = -1.10873e-05
DILUPBiCG:  Solving for omega, Initial residual = 0.00642422, Final residual = 5.30378e-05, No Iterations 2
DILUPBiCG:  Solving for k, Initial residual = 0.0366282, Final residual = 0.000190667, No Iterations 2
Before T+T solve
BiCG:  Solving for T+T, Initial residual = 0.000954712, Final residual = 7.81741e-07, No Iterations 10
Tres = -89.562
TsRes = 0.0654355
ExecutionTime = 6.32 s



Wall heat fluxes [W]
cabHeatTransmissiveWall -4.15343 7.00786e-15 0 -4.15343
bayHeatTransmissiveWall 4.14719 -2.32269e-14 0 4.14719
walls 0 0 0 0
topExtWall 17.1736 2.26769e-14 0 17.1736
toSolidR 0.00912139 4.57632e-16 0 0.00912139
cabInlet -7.18024e-06 -2358.34 0 -2358.34
toSolidL -0.00131225 -2.49798e-14 0 -0.00131225
passengers -57.4283 5.98317e-13 0 -57.4283
bottomExtWall 36.9235 -6.53916e-13 0 36.9235
core2 -37.8464 -6.02686e-13 0 -37.8464
core1 -47.4569 -8.99375e-13 0 -47.4569
bayInletL -0.000210867 -2431.67 0 -2431.67
bayInletR -5.39967e-05 -2431.67 0 -2431.67
cabOutletL 0 1170.16 0 1170.16
cabOutletR 0 1188.25 0 1188.25
bayOutletL 0 2414.81 0 2414.81
bayOutletR 0 2447.38 0 2447.38
defaultFaces 0 0 0 0
sum -88.6331 -1.07119 0 -89.7043


Wall heat fluxes [W]
topExtWall 0.20932 0 0 0.20932
toFluidR -0.0998836 0 0 -0.0998836
toFluidL -0.0997786 0 0 -0.0997786
defaultFaces 0 0 0 0
sum 0.00965821 0 0 0.00965821

Time = 10

DILUPBiCG:  Solving for Ux, Initial residual = 0.0100809, Final residual = 1.41994e-06, No Iterations 2
DILUPBiCG:  Solving for Uy, Initial residual = 0.0102891, Final residual = 3.11122e-06, No Iterations 2
DICPCG:  Solving for p_rgh, Initial residual = 0.0813285, Final residual = 7.99536e-05, No Iterations 442
time step continuity errors : sum local = 4.23975e-05, global = 2.75737e-07, cumulative = -1.08116e-05
DILUPBiCG:  Solving for omega, Initial residual = 0.00569773, Final residual = 4.76559e-05, No Iterations 2
DILUPBiCG:  Solving for k, Initial residual = 0.0322465, Final residual = 0.000175642, No Iterations 2
Before T+T solve
BiCG:  Solving for T+T, Initial residual = 0.000954991, Final residual = 8.25395e-07, No Iterations 9
Tres = -90.4334
TsRes = 0.0493329
ExecutionTime = 6.93 s



Wall heat fluxes [W]
cabHeatTransmissiveWall -4.10646 1.12111e-15 0 -4.10646
bayHeatTransmissiveWall 4.10279 5.56721e-15 0 4.10279
walls 0 0 0 0
topExtWall 17.0058 1.21444e-13 0 17.0058
toSolidR 0.0259173 3.82395e-15 0 0.0259173
cabInlet -1.48238e-05 -2358.34 0 -2358.34
toSolidL 0.0272227 2.88922e-13 0 0.0272227
passengers -57.5286 3.0778e-13 0 -57.5286
bottomExtWall 36.5713 4.09051e-13 0 36.5713
core2 -37.879 5.10883e-13 0 -37.879
core1 -47.4992 -2.96811e-13 0 -47.4992
bayInletL -0.000297561 -2431.67 0 -2431.67
bayInletR -9.34478e-05 -2431.67 0 -2431.67
cabOutletL 0 1170.42 0 1170.42
cabOutletR 0 1188.07 0 1188.07
bayOutletL 0 2415.3 0 2415.3
bayOutletR 0 2446.61 0 2446.61
defaultFaces 0 0 0 0
sum -89.2807 -1.26327 0 -90.5439


Wall heat fluxes [W]
topExtWall 0.209295 0 0 0.209295
toFluidR -0.101162 0 0 -0.101162
toFluidL -0.100476 0 0 -0.100476
defaultFaces 0 0 0 0
sum 0.00765698 0 0 0.00765698

Time = 11

DILUPBiCG:  Solving for Ux, Initial residual = 0.00973834, Final residual = 1.74701e-06, No Iterations 2
DILUPBiCG:  Solving for Uy, Initial residual = 0.0110523, Final residual = 5.33562e-06, No Iterations 2
DICPCG:  Solving for p_rgh, Initial residual = 0.0796822, Final residual = 7.46536e-05, No Iterations 335
time step continuity errors : sum local = 3.91959e-05, global = 2.22775e-06, cumulative = -8.58383e-06
DILUPBiCG:  Solving for omega, Initial residual = 0.00507604, Final residual = 4.19795e-05, No Iterations 2
DILUPBiCG:  Solving for k, Initial residual = 0.0288192, Final residual = 0.000162225, No Iterations 2
Before T+T solve
BiCG:  Solving for T+T, Initial residual = 0.000953058, Final residual = 7.7032e-07, No Iterations 8
Tres = -90.7591
TsRes = 0.03614
ExecutionTime = 7.46 s



Wall heat fluxes [W]
cabHeatTransmissiveWall -4.06277 2.97032e-15 0 -4.06277
bayHeatTransmissiveWall 4.06141 -4.97592e-15 0 4.06141
walls 0 0 0 0
topExtWall 16.8546 -1.6997e-12 0 16.8546
toSolidR 0.0402333 -1.83182e-14 0 0.0402333
cabInlet -2.72995e-05 -2358.34 0 -2358.34
toSolidL 0.047045 -3.94656e-14 0 0.047045
passengers -57.6196 3.2101e-13 0 -57.6196
bottomExtWall 36.2095 -1.15097e-13 0 36.2095
core2 -37.8758 3.00678e-14 0 -37.8758
core1 -47.543 1.70001e-13 0 -47.543
bayInletL -0.000395508 -2431.67 0 -2431.67
bayInletR -0.000158365 -2431.67 0 -2431.67
cabOutletL 0 1170.74 0 1170.74
cabOutletR 0 1187.95 0 1187.95
bayOutletL 0 2415.67 0 2415.67
bayOutletR 0 2446.36 0 2446.36
defaultFaces 0 0 0 0
sum -89.889 -0.956288 0 -90.8453


Wall heat fluxes [W]
topExtWall 0.208296 0 0 0.208296
toFluidR -0.101993 0 0 -0.101993
toFluidL -0.101557 0 0 -0.101557
defaultFaces 0 0 0 0
sum 0.00474525 0 0 0.00474525

Time = 12

DILUPBiCG:  Solving for Ux, Initial residual = 0.00817471, Final residual = 1.50885e-06, No Iterations 2
DILUPBiCG:  Solving for Uy, Initial residual = 0.00902395, Final residual = 4.10251e-06, No Iterations 2
DICPCG:  Solving for p_rgh, Initial residual = 0.0704829, Final residual = 6.85097e-05, No Iterations 504
time step continuity errors : sum local = 3.7264e-05, global = 7.27759e-08, cumulative = -8.51105e-06
DILUPBiCG:  Solving for omega, Initial residual = 0.00460088, Final residual = 4.44796e-05, No Iterations 2
DILUPBiCG:  Solving for k, Initial residual = 0.0259132, Final residual = 0.000157032, No Iterations 2
Before T+T solve
BiCG:  Solving for T+T, Initial residual = 0.0009605, Final residual = 7.37562e-07, No Iterations 7
Tres = -92.4628
TsRes = 0.0264021
ExecutionTime = 8.11 s



Wall heat fluxes [W]
cabHeatTransmissiveWall -4.02393 -1.52169e-14 0 -4.02393
bayHeatTransmissiveWall 4.02457 3.07551e-16 0 4.02457
walls 0 0 0 0
topExtWall 16.6775 -8.14713e-13 0 16.6775
toSolidR 0.0518783 -4.2259e-16 0 0.0518783
cabInlet -9.87306e-05 -2358.34 0 -2358.34
toSolidL 0.0520566 -8.37421e-14 0 0.0520566
passengers -57.7012 -1.9899e-13 0 -57.7012
bottomExtWall 35.9042 7.20798e-13 0 35.9042
core2 -38.0343 4.33444e-14 0 -38.0343
core1 -47.5817 -3.2264e-13 0 -47.5817
bayInletL -0.000497662 -2431.67 0 -2431.67
bayInletR -0.000242702 -2431.67 0 -2431.67
cabOutletL 0 1170.96 0 1170.96
cabOutletR 0 1187.6 0 1187.6
bayOutletL 0 2415.52 0 2415.52
bayOutletR 0 2445.68 0 2445.68
defaultFaces 0 0 0 0
sum -90.6318 -1.90702 0 -92.5389


Wall heat fluxes [W]
topExtWall 0.207019 0 0 0.207019
toFluidR -0.102531 0 0 -0.102531
toFluidL -0.102651 0 0 -0.102651
defaultFaces 0 0 0 0
sum 0.00183649 0 0 0.00183649

Time = 13

DILUPBiCG:  Solving for Ux, Initial residual = 0.00703303, Final residual = 1.28269e-06, No Iterations 2
DILUPBiCG:  Solving for Uy, Initial residual = 0.00691931, Final residual = 2.48693e-06, No Iterations 2
DICPCG:  Solving for p_rgh, Initial residual = 0.0576033, Final residual = 5.75871e-05, No Iterations 430
time step continuity errors : sum local = 3.34077e-05, global = 7.13923e-08, cumulative = -8.43966e-06
DILUPBiCG:  Solving for omega, Initial residual = 0.00414038, Final residual = 3.43698e-05, No Iterations 2
DILUPBiCG:  Solving for k, Initial residual = 0.0235485, Final residual = 0.00013463, No Iterations 2
Before T+T solve
BiCG:  Solving for T+T, Initial residual = 0.000954407, Final residual = 6.82219e-07, No Iterations 4
Tres = -93.3127
TsRes = 0.0229299
ExecutionTime = 8.7 s



Wall heat fluxes [W]
cabHeatTransmissiveWall -3.98805 4.82248e-15 0 -3.98805
bayHeatTransmissiveWall 3.99039 4.73086e-15 0 3.99039
walls 0 0 0 0
topExtWall 16.5556 3.03503e-12 0 16.5556
toSolidR 0.0614853 -1.20832e-16 0 0.0614853
cabInlet -0.000270195 -2358.34 0 -2358.34
toSolidL 0.0677625 2.82105e-15 0 0.0677625
passengers -57.7704 5.18061e-13 0 -57.7704
bottomExtWall 35.6132 -2.37391e-13 0 35.6132
core2 -38.0648 -4.79849e-13 0 -38.0648
core1 -47.6194 1.43136e-13 0 -47.6194
bayInletL -0.000598221 -2431.67 0 -2431.67
bayInletR -0.000302727 -2431.67 0 -2431.67
cabOutletL 0 1171.2 0 1171.2
cabOutletR 0 1187.38 0 1187.38
bayOutletL 0 2415.76 0 2415.76
bayOutletR 0 2445.12 0 2445.12
defaultFaces 0 0 0 0
sum -91.1554 -2.21149 0 -93.3669


Wall heat fluxes [W]
topExtWall 0.208672 0 0 0.208672
toFluidR -0.102136 0 0 -0.102136
toFluidL -0.101766 0 0 -0.101766
defaultFaces 0 0 0 0
sum 0.00477027 0 0 0.00477027

Time = 14

DILUPBiCG:  Solving for Ux, Initial residual = 0.00703777, Final residual = 1.37812e-06, No Iterations 2
DILUPBiCG:  Solving for Uy, Initial residual = 0.00694664, Final residual = 1.65341e-06, No Iterations 2
DICPCG:  Solving for p_rgh, Initial residual = 0.050238, Final residual = 4.84518e-05, No Iterations 306
time step continuity errors : sum local = 2.89581e-05, global = -1.08721e-06, cumulative = -9.52687e-06
DILUPBiCG:  Solving for omega, Initial residual = 0.00379818, Final residual = 3.22736e-05, No Iterations 2
DILUPBiCG:  Solving for k, Initial residual = 0.0216139, Final residual = 0.000138519, No Iterations 2
Before T+T solve
BiCG:  Solving for T+T, Initial residual = 0.000952527, Final residual = 7.5841e-07, No Iterations 4
Tres = -94.3561
TsRes = 0.0184012
ExecutionTime = 9.17 s



Wall heat fluxes [W]
cabHeatTransmissiveWall -3.9533 1.23514e-14 0 -3.9533
bayHeatTransmissiveWall 3.95703 7.02226e-15 0 3.95703
walls 0 0 0 0
topExtWall 16.4225 -9.67068e-13 0 16.4225
toSolidR 0.0690651 -8.95626e-15 0 0.0690651
cabInlet -0.000480826 -2358.34 0 -2358.34
toSolidL 0.0766225 -2.7816e-14 0 0.0766225
passengers -57.8237 -1.3746e-13 0 -57.8237
bottomExtWall 35.3429 7.0098e-13 0 35.3429
core2 -37.978 -4.86463e-14 0 -37.978
core1 -47.6472 7.49971e-13 0 -47.6472
bayInletL -0.000692944 -2431.67 0 -2431.67
bayInletR -0.000356515 -2431.67 0 -2431.67
cabOutletL 0 1171.2 0 1171.2
cabOutletR 0 1187.02 0 1187.02
bayOutletL 0 2416.18 0 2416.18
bayOutletR 0 2444.4 0 2444.4
defaultFaces 0 0 0 0
sum -91.5356 -2.86134 0 -94.3969


Wall heat fluxes [W]
topExtWall 0.208684 0 0 0.208684
toFluidR -0.102061 0 0 -0.102061
toFluidL -0.101933 0 0 -0.101933
defaultFaces 0 0 0 0
sum 0.00468985 0 0 0.00468985

Time = 15

DILUPBiCG:  Solving for Ux, Initial residual = 0.00663269, Final residual = 1.04384e-06, No Iterations 2
DILUPBiCG:  Solving for Uy, Initial residual = 0.00648614, Final residual = 1.22439e-06, No Iterations 2
DICPCG:  Solving for p_rgh, Initial residual = 0.0500894, Final residual = 4.94191e-05, No Iterations 293
time step continuity errors : sum local = 3.12339e-05, global = 7.41427e-08, cumulative = -9.45273e-06
DILUPBiCG:  Solving for omega, Initial residual = 0.00355151, Final residual = 2.24042e-06, No Iterations 3
DILUPBiCG:  Solving for k, Initial residual = 0.0200364, Final residual = 0.000138498, No Iterations 2
Before T+T solve
BiCG:  Solving for T+T, Initial residual = 0.000969393, Final residual = 6.38916e-07, No Iterations 4
Tres = -94.9441
TsRes = 0.0149784
ExecutionTime = 9.63 s



Wall heat fluxes [W]
cabHeatTransmissiveWall -3.91915 -2.38916e-14 0 -3.91915
bayHeatTransmissiveWall 3.92347 -5.31516e-15 0 3.92347
walls 0 0 0 0
topExtWall 16.2918 3.29428e-13 0 16.2918
toSolidR 0.075048 -1.72368e-14 0 0.075048
cabInlet -0.000729904 -2358.34 0 -2358.34
toSolidL 0.0823998 -3.80193e-14 0 0.0823998
passengers -57.8644 4.47545e-13 0 -57.8644
bottomExtWall 35.1014 4.95259e-13 0 35.1014
core2 -38.1887 -9.61952e-13 0 -38.1887
core1 -47.6681 6.93783e-13 0 -47.6681
bayInletL -0.000778913 -2431.67 0 -2431.67
bayInletR -0.000416179 -2431.67 0 -2431.67
cabOutletL 0 1171.35 0 1171.35
cabOutletR 0 1186.75 0 1186.75
bayOutletL 0 2416.78 0 2416.78
bayOutletR 0 2443.98 0 2443.98
defaultFaces 0 0 0 0
sum -92.1682 -2.80775 0 -94.9759


Wall heat fluxes [W]
topExtWall 0.208557 0 0 0.208557
toFluidR -0.102009 0 0 -0.102009
toFluidL -0.102028 0 0 -0.102028
defaultFaces 0 0 0 0
sum 0.00452061 0 0 0.00452061

Time = 16

DILUPBiCG:  Solving for Ux, Initial residual = 0.00619974, Final residual = 1.9555e-06, No Iterations 2
DILUPBiCG:  Solving for Uy, Initial residual = 0.00606731, Final residual = 1.49641e-06, No Iterations 2
DICPCG:  Solving for p_rgh, Initial residual = 0.0458682, Final residual = 4.40817e-05, No Iterations 252
time step continuity errors : sum local = 2.85191e-05, global = -4.3275e-07, cumulative = -9.88548e-06
DILUPBiCG:  Solving for omega, Initial residual = 0.00327055, Final residual = 2.86897e-05, No Iterations 2
DILUPBiCG:  Solving for k, Initial residual = 0.0187527, Final residual = 0.000136431, No Iterations 2
Before T+T solve
BiCG:  Solving for T+T, Initial residual = 0.000956134, Final residual = 6.69554e-07, No Iterations 4
Tres = -95.754
TsRes = 0.0120354
ExecutionTime = 10.05 s



Wall heat fluxes [W]
cabHeatTransmissiveWall -3.88585 -1.91611e-14 0 -3.88585
bayHeatTransmissiveWall 3.88595 -2.08268e-14 0 3.88595
walls 0 0 0 0
topExtWall 16.166 -8.02703e-13 0 16.166
toSolidR 0.0797332 3.51971e-14 0 0.0797332
cabInlet -0.00100991 -2358.34 0 -2358.34
toSolidL 0.0863979 4.19165e-14 0 0.0863979
passengers -57.9189 -1.38529e-13 0 -57.9189
bottomExtWall 34.87 -3.45853e-14 0 34.87
core2 -38.1154 6.19053e-14 0 -38.1154
core1 -47.6871 -1.63262e-12 0 -47.6871
bayInletL -0.000855891 -2431.67 0 -2431.67
bayInletR -0.00047314 -2431.67 0 -2431.67
cabOutletL 0 1171.54 0 1171.54
cabOutletR 0 1186.58 0 1186.58
bayOutletL 0 2417.07 0 2417.07
bayOutletR 0 2443.21 0 2443.21
defaultFaces 0 0 0 0
sum -92.5214 -3.26249 0 -95.7839


Wall heat fluxes [W]
topExtWall 0.208205 0 0 0.208205
toFluidR -0.102054 0 0 -0.102054
toFluidL -0.102182 0 0 -0.102182
defaultFaces 0 0 0 0
sum 0.00396936 0 0 0.00396936

Time = 17

DILUPBiCG:  Solving for Ux, Initial residual = 0.00593689, Final residual = 1.25149e-06, No Iterations 2
DILUPBiCG:  Solving for Uy, Initial residual = 0.0058157, Final residual = 1.30673e-06, No Iterations 2
DICPCG:  Solving for p_rgh, Initial residual = 0.0444906, Final residual = 4.4195e-05, No Iterations 169
time step continuity errors : sum local = 2.97463e-05, global = -3.66196e-07, cumulative = -1.02517e-05
DILUPBiCG:  Solving for omega, Initial residual = 0.0030632, Final residual = 2.10634e-06, No Iterations 3
DILUPBiCG:  Solving for k, Initial residual = 0.0176271, Final residual = 0.000140435, No Iterations 2
Before T+T solve
BiCG:  Solving for T+T, Initial residual = 0.000958719, Final residual = 5.7847e-07, No Iterations 4
Tres = -96.3568
TsRes = 0.00977404
ExecutionTime = 10.4 s



Wall heat fluxes [W]
cabHeatTransmissiveWall -3.85223 2.0301e-15 0 -3.85223
bayHeatTransmissiveWall 3.86498 -1.31919e-14 0 3.86498
walls 0 0 0 0
topExtWall 16.0504 2.5178e-13 0 16.0504
toSolidR 0.0836416 -3.0584e-14 0 0.0836416
cabInlet -0.00131154 -2358.34 0 -2358.34
toSolidL 0.0892979 -3.13859e-14 0 0.0892979
passengers -57.9561 -7.33852e-14 0 -57.9561
bottomExtWall 34.6597 -9.14924e-13 0 34.6597
core2 -38.089 -2.12613e-12 0 -38.089
core1 -47.6963 -2.29581e-12 0 -47.6963
bayInletL -0.000924282 -2431.67 0 -2431.67
bayInletR -0.00052728 -2431.67 0 -2431.67
cabOutletL 0 1171.71 0 1171.71
cabOutletR 0 1186.1 0 1186.1
bayOutletL 0 2417.66 0 2417.66
bayOutletR 0 2442.67 0 2442.67
defaultFaces 0 0 0 0
sum -92.8485 -3.52068 0 -96.3692


Wall heat fluxes [W]
topExtWall 0.207887 0 0 0.207887
toFluidR -0.102079 0 0 -0.102079
toFluidL -0.102299 0 0 -0.102299
defaultFaces 0 0 0 0
sum 0.00350847 0 0 0.00350847

Time = 18

DILUPBiCG:  Solving for Ux, Initial residual = 0.00575011, Final residual = 9.23445e-07, No Iterations 2
DILUPBiCG:  Solving for Uy, Initial residual = 0.0056801, Final residual = 1.53545e-06, No Iterations 2
DICPCG:  Solving for p_rgh, Initial residual = 0.0492449, Final residual = 4.83245e-05, No Iterations 226
time step continuity errors : sum local = 3.44131e-05, global = -7.64538e-07, cumulative = -1.10162e-05
DILUPBiCG:  Solving for omega, Initial residual = 0.00285457, Final residual = 2.36913e-05, No Iterations 2
DILUPBiCG:  Solving for k, Initial residual = 0.0166466, Final residual = 0.000151737, No Iterations 2
Before T+T solve
BiCG:  Solving for T+T, Initial residual = 0.000959677, Final residual = 5.09837e-07, No Iterations 4
Tres = -97.2043
TsRes = 0.00797686
ExecutionTime = 10.8 s



Wall heat fluxes [W]
cabHeatTransmissiveWall -3.82267 2.16403e-14 0 -3.82267
bayHeatTransmissiveWall 3.83651 -1.87962e-14 0 3.83651
walls 0 0 0 0
topExtWall 15.9399 2.52603e-13 0 15.9399
toSolidR 0.0866902 2.22896e-14 0 0.0866902
cabInlet -0.00160684 -2358.34 0 -2358.34
toSolidL 0.0914677 -5.6307e-14 0 0.0914677
passengers -57.9725 -1.29585e-13 0 -57.9725
bottomExtWall 34.4621 5.60834e-13 0 34.4621
core2 -38.1894 -2.30491e-13 0 -38.1894
core1 -47.7121 -2.25651e-12 0 -47.7121
bayInletL -0.000985249 -2431.67 0 -2431.67
bayInletR -0.00057739 -2431.67 0 -2431.67
cabOutletL 0 1172 0 1172
cabOutletR 0 1186.26 0 1186.26
bayOutletL 0 2417.75 0 2417.75
bayOutletR 0 2441.72 0 2441.72
defaultFaces 0 0 0 0
sum -93.2831 -3.92888 0 -97.2119


Wall heat fluxes [W]
topExtWall 0.207586 0 0 0.207586
toFluidR -0.102122 0 0 -0.102122
toFluidL -0.102404 0 0 -0.102404
defaultFaces 0 0 0 0
sum 0.00306071 0 0 0.00306071

Time = 19

DILUPBiCG:  Solving for Ux, Initial residual = 0.00559984, Final residual = 9.43968e-07, No Iterations 2
DILUPBiCG:  Solving for Uy, Initial residual = 0.0055942, Final residual = 1.22663e-06, No Iterations 2
DICPCG:  Solving for p_rgh, Initial residual = 0.0458554, Final residual = 4.28412e-05, No Iterations 283
time step continuity errors : sum local = 3.19212e-05, global = 9.35111e-08, cumulative = -1.09227e-05
DILUPBiCG:  Solving for omega, Initial residual = 0.00269067, Final residual = 2.27852e-05, No Iterations 2
DILUPBiCG:  Solving for k, Initial residual = 0.0157704, Final residual = 1.01452e-05, No Iterations 3
Before T+T solve
BiCG:  Solving for T+T, Initial residual = 0.000966963, Final residual = 4.33153e-07, No Iterations 4
Tres = -97.5279
TsRes = 0.00654715
ExecutionTime = 11.25 s



Wall heat fluxes [W]
cabHeatTransmissiveWall -3.79412 1.48434e-14 0 -3.79412
bayHeatTransmissiveWall 3.80912 -4.97461e-15 0 3.80912
walls 0 0 0 0
topExtWall 15.8387 4.18863e-13 0 15.8387
toSolidR 0.0891152 1.4697e-14 0 0.0891152
cabInlet -0.001873 -2358.34 0 -2358.34
toSolidL 0.0931156 -9.20773e-14 0 0.0931156
passengers -57.9959 -9.14054e-13 0 -57.9959
bottomExtWall 34.2781 -7.08559e-13 0 34.2781
core2 -38.2106 8.02434e-13 0 -38.2106
core1 -47.7161 -1.70353e-12 0 -47.7161
bayInletL -0.00103852 -2431.67 0 -2431.67
bayInletR -0.000624405 -2431.67 0 -2431.67
cabOutletL 0 1172.23 0 1172.23
cabOutletR 0 1186.08 0 1186.08
bayOutletL 0 2418.36 0 2418.36
bayOutletR 0 2441.08 0 2441.08
defaultFaces 0 0 0 0
sum -93.6121 -3.91935 0 -97.5315


Wall heat fluxes [W]
topExtWall 0.207312 0 0 0.207312
toFluidR -0.102165 0 0 -0.102165
toFluidL -0.102497 0 0 -0.102497
defaultFaces 0 0 0 0
sum 0.0026492 0 0 0.0026492

Time = 20

DILUPBiCG:  Solving for Ux, Initial residual = 0.00543302, Final residual = 9.16338e-07, No Iterations 2
DILUPBiCG:  Solving for Uy, Initial residual = 0.00546974, Final residual = 1.12568e-06, No Iterations 2
DICPCG:  Solving for p_rgh, Initial residual = 0.0502886, Final residual = 4.95394e-05, No Iterations 259
time step continuity errors : sum local = 3.87214e-05, global = -5.0986e-07, cumulative = -1.14326e-05
DILUPBiCG:  Solving for omega, Initial residual = 0.0025464, Final residual = 2.27261e-05, No Iterations 2
DILUPBiCG:  Solving for k, Initial residual = 0.0150193, Final residual = 9.96067e-06, No Iterations 3
Before T+T solve
BiCG:  Solving for T+T, Initial residual = 0.000967237, Final residual = 3.88039e-07, No Iterations 4
Tres = -98.2514
TsRes = 0.00540631
ExecutionTime = 11.68 s



Wall heat fluxes [W]
cabHeatTransmissiveWall -3.76665 3.04942e-14 0 -3.76665
bayHeatTransmissiveWall 3.7829 -3.52273e-15 0 3.7829
walls 0 0 0 0
topExtWall 15.7421 3.83248e-14 0 15.7421
toSolidR 0.0910304 2.30267e-14 0 0.0910304
cabInlet -0.00210821 -2358.34 0 -2358.34
toSolidL 0.0944173 4.52315e-15 0 0.0944173
passengers -57.995 7.92651e-13 0 -57.995
bottomExtWall 34.0989 -5.8856e-13 0 34.0989
core2 -38.1847 -4.26412e-12 0 -38.1847
core1 -47.7858 -9.88101e-13 0 -47.7858
bayInletL -0.00108634 -2431.67 0 -2431.67
bayInletR -0.0006677 -2431.67 0 -2431.67
cabOutletL 0 1172.39 0 1172.39
cabOutletR 0 1185.8 0 1185.8
bayOutletL 0 2418.8 0 2418.8
bayOutletR 0 2440.34 0 2440.34
defaultFaces 0 0 0 0
sum -93.9266 -4.32483 0 -98.2514


Wall heat fluxes [W]
topExtWall 0.207067 0 0 0.207067
toFluidR -0.102209 0 0 -0.102209
toFluidL -0.102578 0 0 -0.102578
defaultFaces 0 0 0 0
sum 0.00228071 0 0 0.00228071

Time = 21

DILUPBiCG:  Solving for Ux, Initial residual = 0.00535432, Final residual = 8.43992e-07, No Iterations 2
DILUPBiCG:  Solving for Uy, Initial residual = 0.00538826, Final residual = 1.02202e-06, No Iterations 2
DICPCG:  Solving for p_rgh, Initial residual = 0.048365, Final residual = 4.66552e-05, No Iterations 91
time step continuity errors : sum local = 3.80449e-05, global = -2.27675e-06, cumulative = -1.37093e-05
DILUPBiCG:  Solving for omega, Initial residual = 0.00239811, Final residual = 1.89191e-05, No Iterations 2
DILUPBiCG:  Solving for k, Initial residual = 0.0143525, Final residual = 9.69864e-06, No Iterations 3
Before T+T solve
BiCG:  Solving for T+T, Initial residual = 0.000971817, Final residual = 4.59055e-07, No Iterations 4
Tres = -99.3224
TsRes = 0.00450787
ExecutionTime = 11.96 s



Wall heat fluxes [W]
cabHeatTransmissiveWall -3.74001 1.90056e-15 0 -3.74001
bayHeatTransmissiveWall 3.75763 7.59761e-15 0 3.75763
walls 0 0 0 0
topExtWall 15.6513 1.1944e-12 0 15.6513
toSolidR 0.0925366 1.41292e-15 0 0.0925366
cabInlet -0.00231037 -2358.34 0 -2358.34
toSolidL 0.0955415 -6.03966e-14 0 0.0955415
passengers -58.0475 1.98204e-13 0 -58.0475
bottomExtWall 33.9324 -3.14542e-13 0 33.9324
core2 -38.2433 8.5605e-13 0 -38.2433
core1 -47.7477 -6.95745e-14 0 -47.7477
bayInletL -0.00113016 -2431.67 0 -2431.67
bayInletR -0.000706573 -2431.67 0 -2431.67
cabOutletL 0 1172.75 0 1172.75
cabOutletR 0 1185.73 0 1185.73
bayOutletL 0 2418.85 0 2418.85
bayOutletR 0 2439.27 0 2439.27
defaultFaces 0 0 0 0
sum -94.2534 -5.06573 0 -99.3191


Wall heat fluxes [W]
topExtWall 0.206864 0 0 0.206864
toFluidR -0.102246 0 0 -0.102246
toFluidL -0.102639 0 0 -0.102639
defaultFaces 0 0 0 0
sum 0.00197915 0 0 0.00197915

Time = 22

DILUPBiCG:  Solving for Ux, Initial residual = 0.00521345, Final residual = 1.01814e-06, No Iterations 2
DILUPBiCG:  Solving for Uy, Initial residual = 0.00536158, Final residual = 2.03455e-06, No Iterations 2
DICPCG:  Solving for p_rgh, Initial residual = 0.0530395, Final residual = 5.18502e-05, No Iterations 283
time step continuity errors : sum local = 4.3411e-05, global = -7.30568e-07, cumulative = -1.44399e-05
DILUPBiCG:  Solving for omega, Initial residual = 0.0023474, Final residual = 1.8312e-06, No Iterations 3
DILUPBiCG:  Solving for k, Initial residual = 0.013766, Final residual = 9.96396e-06, No Iterations 3
Before T+T solve
BiCG:  Solving for T+T, Initial residual = 0.000985839, Final residual = 5.32506e-07, No Iterations 4
Tres = -99.2667
TsRes = 0.00377942
ExecutionTime = 12.42 s



Wall heat fluxes [W]
cabHeatTransmissiveWall -3.7144 -3.51233e-15 0 -3.7144
bayHeatTransmissiveWall 3.73501 -1.41079e-14 0 3.73501
walls 0 0 0 0
topExtWall 15.5651 -2.56009e-13 0 15.5651
toSolidR 0.0938338 3.49405e-14 0 0.0938338
cabInlet -0.00248171 -2358.34 0 -2358.34
toSolidL 0.0965767 -3.96753e-14 0 0.0965767
passengers -58.0662 -5.5025e-13 0 -58.0662
bottomExtWall 33.7679 -7.40894e-13 0 33.7679
core2 -38.3148 9.06031e-13 0 -38.3148
core1 -47.6841 -2.58252e-14 0 -47.6841
bayInletL -0.00117108 -2431.67 0 -2431.67
bayInletR -0.000741288 -2431.67 0 -2431.67
cabOutletL 0 1172.69 0 1172.69
cabOutletR 0 1185.34 0 1185.34
bayOutletL 0 2419.71 0 2419.71
bayOutletR 0 2439.19 0 2439.19
defaultFaces 0 0 0 0
sum -94.5255 -4.73311 0 -99.2586


Wall heat fluxes [W]
topExtWall 0.20669 0 0 0.20669
toFluidR -0.102276 0 0 -0.102276
toFluidL -0.10269 0 0 -0.10269
defaultFaces 0 0 0 0
sum 0.00172385 0 0 0.00172385

Time = 23

DILUPBiCG:  Solving for Ux, Initial residual = 0.00524668, Final residual = 1.00285e-06, No Iterations 2
DILUPBiCG:  Solving for Uy, Initial residual = 0.00552338, Final residual = 9.51621e-07, No Iterations 2
DICPCG:  Solving for p_rgh, Initial residual = 0.0529274, Final residual = 5.15055e-05, No Iterations 105
time step continuity errors : sum local = 4.49564e-05, global = -3.85557e-06, cumulative = -1.82954e-05
DILUPBiCG:  Solving for omega, Initial residual = 0.00222283, Final residual = 1.64192e-05, No Iterations 2
DILUPBiCG:  Solving for k, Initial residual = 0.0132091, Final residual = 1.00895e-05, No Iterations 3
Before T+T solve
BiCG:  Solving for T+T, Initial residual = 0.000984712, Final residual = 3.87484e-07, No Iterations 4
Tres = -100.564
TsRes = 0.00317205
ExecutionTime = 12.71 s



Wall heat fluxes [W]
cabHeatTransmissiveWall -3.68991 -8.14507e-15 0 -3.68991
bayHeatTransmissiveWall 3.71305 -1.46775e-14 0 3.71305
walls 0 0 0 0
topExtWall 15.4829 -8.2337e-13 0 15.4829
toSolidR 0.0948549 1.12969e-15 0 0.0948549
cabInlet -0.00262769 -2358.34 0 -2358.34
toSolidL 0.0974956 -3.2201e-14 0 0.0974956
passengers -58.1167 -1.82867e-12 0 -58.1167
bottomExtWall 33.6178 3.75469e-13 0 33.6178
core2 -38.2542 9.48607e-13 0 -38.2542
core1 -47.6944 -1.07486e-12 0 -47.6944
bayInletL -0.0012101 -2431.67 0 -2431.67
bayInletR -0.000771839 -2431.67 0 -2431.67
cabOutletL 0 1172.89 0 1172.89
cabOutletR 0 1185.12 0 1185.12
bayOutletL 0 2419.82 0 2419.82
bayOutletR 0 2438.04 0 2438.04
defaultFaces 0 0 0 0
sum -94.7538 -5.79785 0 -100.552


Wall heat fluxes [W]
topExtWall 0.206535 0 0 0.206535
toFluidR -0.102309 0 0 -0.102309
toFluidL -0.10274 0 0 -0.10274
defaultFaces 0 0 0 0
sum 0.00148563 0 0 0.00148563

Time = 24

DILUPBiCG:  Solving for Ux, Initial residual = 0.00514888, Final residual = 9.06481e-07, No Iterations 2
DILUPBiCG:  Solving for Uy, Initial residual = 0.00540203, Final residual = 9.08142e-07, No Iterations 2
DICPCG:  Solving for p_rgh, Initial residual = 0.0600694, Final residual = 5.91292e-05, No Iterations 91
time step continuity errors : sum local = 5.44494e-05, global = -7.37821e-06, cumulative = -2.56736e-05
DILUPBiCG:  Solving for omega, Initial residual = 0.00218015, Final residual = 1.67979e-06, No Iterations 3
DILUPBiCG:  Solving for k, Initial residual = 0.0127172, Final residual = 9.92608e-06, No Iterations 3
Before T+T solve
BiCG:  Solving for T+T, Initial residual = 0.00100046, Final residual = 5.91901e-07, No Iterations 4
Tres = -101.996
TsRes = 0.0026845
ExecutionTime = 12.99 s



Wall heat fluxes [W]
cabHeatTransmissiveWall -3.66683 1.43404e-14 0 -3.66683
bayHeatTransmissiveWall 3.69119 -3.05262e-14 0 3.69119
walls 0 0 0 0
topExtWall 15.4039 -2.15236e-13 0 15.4039
toSolidR 0.0956284 -5.42575e-14 0 0.0956284
cabInlet -0.00275467 -2358.34 0 -2358.34
toSolidL 0.0982365 2.87494e-14 0 0.0982365
passengers -58.096 3.62314e-13 0 -58.096
bottomExtWall 33.4746 -7.46962e-13 0 33.4746
core2 -38.2629 4.41493e-12 0 -38.2629
core1 -47.788 -1.87514e-12 0 -47.788
bayInletL -0.00125005 -2431.67 0 -2431.67
bayInletR -0.000798927 -2431.67 0 -2431.67
cabOutletL 0 1172.88 0 1172.88
cabOutletR 0 1184.81 0 1184.81
bayOutletL 0 2419.98 0 2419.98
bayOutletR 0 2437.07 0 2437.07
defaultFaces 0 0 0 0
sum -95.055 -6.9263 0 -101.981


Wall heat fluxes [W]
topExtWall 0.206402 0 0 0.206402
toFluidR -0.102336 0 0 -0.102336
toFluidL -0.102787 0 0 -0.102787
defaultFaces 0 0 0 0
sum 0.00127957 0 0 0.00127957

Time = 25

DILUPBiCG:  Solving for Ux, Initial residual = 0.00500248, Final residual = 8.21288e-07, No Iterations 2
DILUPBiCG:  Solving for Uy, Initial residual = 0.00531704, Final residual = 8.40193e-07, No Iterations 2
DICPCG:  Solving for p_rgh, Initial residual = 0.0632623, Final residual = 6.22839e-05, No Iterations 260
time step continuity errors : sum local = 5.98313e-05, global = -9.10864e-07, cumulative = -2.65845e-05
DILUPBiCG:  Solving for omega, Initial residual = 0.00207205, Final residual = 1.74506e-05, No Iterations 2
DILUPBiCG:  Solving for k, Initial residual = 0.0122676, Final residual = 9.64431e-06, No Iterations 3
Before T+T solve
BiCG:  Solving for T+T, Initial residual = 0.00100583, Final residual = 5.0655e-07, No Iterations 4
Tres = -100.454
TsRes = 0.00228575
ExecutionTime = 13.44 s



Wall heat fluxes [W]
cabHeatTransmissiveWall -3.64463 -9.4329e-15 0 -3.64463
bayHeatTransmissiveWall 3.66943 -2.08428e-14 0 3.66943
walls 0 0 0 0
topExtWall 15.3281 -8.13269e-13 0 15.3281
toSolidR 0.096222 -1.26838e-14 0 0.096222
cabInlet -0.00286689 -2358.34 0 -2358.34
toSolidL 0.0987836 -3.137e-14 0 0.0987836
passengers -58.1191 -1.07039e-13 0 -58.1191
bottomExtWall 33.338 3.56432e-13 0 33.338
core2 -38.3145 4.20525e-12 0 -38.3145
core1 -47.9104 -9.91356e-13 0 -47.9104
bayInletL -0.00128903 -2431.67 0 -2431.67
bayInletR -0.000822527 -2431.67 0 -2431.67
cabOutletL 0 1173.26 0 1173.26
cabOutletR 0 1184.9 0 1184.9
bayOutletL 0 2421.28 0 2421.28
bayOutletR 0 2437.25 0 2437.25
defaultFaces 0 0 0 0
sum -95.4632 -4.9746 0 -100.438


Wall heat fluxes [W]
topExtWall 0.206285 0 0 0.206285
toFluidR -0.102361 0 0 -0.102361
toFluidL -0.102833 0 0 -0.102833
defaultFaces 0 0 0 0
sum 0.00109107 0 0 0.00109107

Time = 26

DILUPBiCG:  Solving for Ux, Initial residual = 0.00499213, Final residual = 8.88238e-07, No Iterations 2
DILUPBiCG:  Solving for Uy, Initial residual = 0.00520855, Final residual = 8.3244e-07, No Iterations 2
DICPCG:  Solving for p_rgh, Initial residual = 0.0651467, Final residual = 6.40555e-05, No Iterations 82
time step continuity errors : sum local = 6.28968e-05, global = -6.25153e-06, cumulative = -3.2836e-05
DILUPBiCG:  Solving for omega, Initial residual = 0.00200806, Final residual = 1.58556e-05, No Iterations 2
DILUPBiCG:  Solving for k, Initial residual = 0.0118576, Final residual = 9.29176e-06, No Iterations 3
Before T+T solve
BiCG:  Solving for T+T, Initial residual = 0.00102236, Final residual = 4.85593e-07, No Iterations 4
Tres = -102.147
TsRes = 0.00196483
ExecutionTime = 13.71 s



Wall heat fluxes [W]
cabHeatTransmissiveWall -3.62306 -8.27208e-15 0 -3.62306
bayHeatTransmissiveWall 3.64905 -2.14688e-14 0 3.64905
walls 0 0 0 0
topExtWall 15.2554 1.71501e-13 0 15.2554
toSolidR 0.0966815 3.3079e-14 0 0.0966815
cabInlet -0.00296726 -2358.34 0 -2358.34
toSolidL 0.0991563 5.75602e-14 0 0.0991563
passengers -58.0882 -4.66496e-13 0 -58.0882
bottomExtWall 33.2091 7.24342e-13 0 33.2091
core2 -38.2668 2.54282e-12 0 -38.2668
core1 -47.8971 -8.49352e-13 0 -47.8971
bayInletL -0.00132773 -2431.67 0 -2431.67
bayInletR -0.00084305 -2431.67 0 -2431.67
cabOutletL 0 1173.33 0 1173.33
cabOutletR 0 1184.74 0 1184.74
bayOutletL 0 2421.17 0 2421.17
bayOutletR 0 2435.87 0 2435.87
defaultFaces 0 0 0 0
sum -95.5709 -6.55858 0 -102.13


Wall heat fluxes [W]
topExtWall 0.206183 0 0 0.206183
toFluidR -0.102382 0 0 -0.102382
toFluidL -0.102876 0 0 -0.102876
defaultFaces 0 0 0 0
sum 0.000924438 0 0 0.000924438

Time = 27

DILUPBiCG:  Solving for Ux, Initial residual = 0.00493027, Final residual = 3.64562e-05, No Iterations 2
DILUPBiCG:  Solving for Uy, Initial residual = 0.0052475, Final residual = 7.82205e-07, No Iterations 2
DICPCG:  Solving for p_rgh, Initial residual = 0.0636308, Final residual = 6.23199e-05, No Iterations 250
time step continuity errors : sum local = 6.27917e-05, global = -7.10966e-07, cumulative = -3.3547e-05
DILUPBiCG:  Solving for omega, Initial residual = 0.00195784, Final residual = 1.41745e-05, No Iterations 2
DILUPBiCG:  Solving for k, Initial residual = 0.0114387, Final residual = 8.80128e-06, No Iterations 3
Before T+T solve
BiCG:  Solving for T+T, Initial residual = 0.00101755, Final residual = 4.36836e-07, No Iterations 4
Tres = -100.594
TsRes = 0.00170802
ExecutionTime = 14.15 s



Wall heat fluxes [W]
cabHeatTransmissiveWall -3.60222 1.42447e-14 0 -3.60222
bayHeatTransmissiveWall 3.62915 -4.73357e-15 0 3.62915
walls 0 0 0 0
topExtWall 15.1859 -3.65888e-13 0 15.1859
toSolidR 0.0970401 1.45866e-14 0 0.0970401
cabInlet -0.00305676 -2358.34 0 -2358.34
toSolidL 0.099396 -1.18278e-14 0 0.099396
passengers -58.1757 2.25579e-12 0 -58.1757
bottomExtWall 33.0878 -5.64128e-13 0 33.0878
core2 -38.2716 5.04868e-13 0 -38.2716
core1 -47.8489 1.39989e-12 0 -47.8489
bayInletL -0.00136564 -2431.67 0 -2431.67
bayInletR -0.000861078 -2431.67 0 -2431.67
cabOutletL 0 1173.4 0 1173.4
cabOutletR 0 1184.91 0 1184.91
bayOutletL 0 2422.39 0 2422.39
bayOutletR 0 2436.19 0 2436.19
defaultFaces 0 0 0 0
sum -95.8044 -4.77092 0 -100.575


Wall heat fluxes [W]
topExtWall 0.206093 0 0 0.206093
toFluidR -0.102399 0 0 -0.102399
toFluidL -0.102914 0 0 -0.102914
defaultFaces 0 0 0 0
sum 0.0007802 0 0 0.0007802

Time = 28

DILUPBiCG:  Solving for Ux, Initial residual = 0.00493259, Final residual = 8.00048e-07, No Iterations 2
DILUPBiCG:  Solving for Uy, Initial residual = 0.0054699, Final residual = 8.44408e-07, No Iterations 2
DICPCG:  Solving for p_rgh, Initial residual = 0.0732378, Final residual = 7.01436e-05, No Iterations 77
time step continuity errors : sum local = 7.44163e-05, global = -6.77466e-06, cumulative = -4.03217e-05
DILUPBiCG:  Solving for omega, Initial residual = 0.00195178, Final residual = 2.97367e-06, No Iterations 3
DILUPBiCG:  Solving for k, Initial residual = 0.0111035, Final residual = 1.06673e-05, No Iterations 3
Before T+T solve
BiCG:  Solving for T+T, Initial residual = 0.00103449, Final residual = 3.93136e-07, No Iterations 4
Tres = -102.634
TsRes = 0.00150341
ExecutionTime = 14.42 s



Wall heat fluxes [W]
cabHeatTransmissiveWall -3.58215 3.06628e-15 0 -3.58215
bayHeatTransmissiveWall 3.61023 2.70079e-14 0 3.61023
walls 0 0 0 0
topExtWall 15.1197 6.06997e-13 0 15.1197
toSolidR 0.0973138 1.09523e-14 0 0.0973138
cabInlet -0.00313491 -2358.34 0 -2358.34
toSolidL 0.0995313 1.12286e-14 0 0.0995313
passengers -58.1437 9.43587e-13 0 -58.1437
bottomExtWall 32.9666 -7.36018e-13 0 32.9666
core2 -38.4876 4.35981e-12 0 -38.4876
core1 -47.8241 2.01932e-12 0 -47.8241
bayInletL -0.00140249 -2431.67 0 -2431.67
bayInletR -0.000877717 -2431.67 0 -2431.67
cabOutletL 0 1173.43 0 1173.43
cabOutletR 0 1184.88 0 1184.88
bayOutletL 0 2422.06 0 2422.06
bayOutletR 0 2434.83 0 2434.83
defaultFaces 0 0 0 0
sum -96.1497 -6.46424 0 -102.614


Wall heat fluxes [W]
topExtWall 0.206015 0 0 0.206015
toFluidR -0.102412 0 0 -0.102412
toFluidL -0.102946 0 0 -0.102946
defaultFaces 0 0 0 0
sum 0.000656126 0 0 0.000656126

Time = 29

DILUPBiCG:  Solving for Ux, Initial residual = 0.00493253, Final residual = 1.17889e-06, No Iterations 2
DILUPBiCG:  Solving for Uy, Initial residual = 0.0056311, Final residual = 5.68629e-06, No Iterations 2
DICPCG:  Solving for p_rgh, Initial residual = 0.0763207, Final residual = 7.5718e-05, No Iterations 177
time step continuity errors : sum local = 8.23408e-05, global = -5.8768e-06, cumulative = -4.61985e-05
DILUPBiCG:  Solving for omega, Initial residual = 0.00198151, Final residual = 1.08485e-05, No Iterations 2
DILUPBiCG:  Solving for k, Initial residual = 0.0107897, Final residual = 1.13833e-05, No Iterations 3
Before T+T solve
BiCG:  Solving for T+T, Initial residual = 0.00108857, Final residual = 6.20902e-07, No Iterations 4
Tres = -102.604
TsRes = 0.00134549
ExecutionTime = 14.77 s



Wall heat fluxes [W]
cabHeatTransmissiveWall -3.56274 4.98852e-15 0 -3.56274
bayHeatTransmissiveWall 3.59204 -1.49675e-14 0 3.59204
walls 0 0 0 0
topExtWall 15.0567 5.11222e-13 0 15.0567
toSolidR 0.0975197 -2.27401e-14 0 0.0975197
cabInlet -0.00320041 -2358.34 0 -2358.34
toSolidL 0.0995896 -1.18189e-14 0 0.0995896
passengers -58.2615 9.36324e-13 0 -58.2615
bottomExtWall 32.8533 2.79329e-13 0 32.8533
core2 -38.4625 -1.94949e-12 0 -38.4625
core1 -48.0065 5.44537e-12 0 -48.0065
bayInletL -0.00143961 -2431.67 0 -2431.67
bayInletR -0.000892229 -2431.67 0 -2431.67
cabOutletL 0 1173.78 0 1173.78
cabOutletR 0 1184.81 0 1184.81
bayOutletL 0 2422.89 0 2422.89
bayOutletR 0 2434.21 0 2434.21
defaultFaces 0 0 0 0
sum -96.5996 -5.98229 0 -102.582


Wall heat fluxes [W]
topExtWall 0.205947 0 0 0.205947
toFluidR -0.102421 0 0 -0.102421
toFluidL -0.102971 0 0 -0.102971
defaultFaces 0 0 0 0
sum 0.000555129 0 0 0.000555129

Time = 30

DILUPBiCG:  Solving for Ux, Initial residual = 0.00502529, Final residual = 8.24638e-07, No Iterations 2
DILUPBiCG:  Solving for Uy, Initial residual = 0.0056011, Final residual = 7.87778e-07, No Iterations 2
DICPCG:  Solving for p_rgh, Initial residual = 0.0739476, Final residual = 7.2394e-05, No Iterations 237
time step continuity errors : sum local = 7.68465e-05, global = 2.23109e-07, cumulative = -4.59753e-05
DILUPBiCG:  Solving for omega, Initial residual = 0.00199393, Final residual = 1.19786e-05, No Iterations 2
DILUPBiCG:  Solving for k, Initial residual = 0.0104785, Final residual = 1.10668e-05, No Iterations 3
Before T+T solve
BiCG:  Solving for T+T, Initial residual = 0.00111751, Final residual = 7.21714e-07, No Iterations 4
Tres = -100.607
TsRes = 0.00121416
ExecutionTime = 15.19 s



Wall heat fluxes [W]
cabHeatTransmissiveWall -3.54408 -1.62421e-14 0 -3.54408
bayHeatTransmissiveWall 3.57392 2.03839e-15 0 3.57392
walls 0 0 0 0
topExtWall 14.9968 2.18931e-13 0 14.9968
toSolidR 0.0976649 2.67338e-14 0 0.0976649
cabInlet -0.00325201 -2358.34 0 -2358.34
toSolidL 0.0995956 -2.3907e-14 0 0.0995956
passengers -58.2224 7.77264e-13 0 -58.2224
bottomExtWall 32.748 1.30027e-12 0 32.748
core2 -38.3506 -7.36743e-13 0 -38.3506
core1 -48.121 1.87811e-12 0 -48.121
bayInletL -0.00147497 -2431.67 0 -2431.67
bayInletR -0.000906049 -2431.67 0 -2431.67
cabOutletL 0 1173.84 0 1173.84
cabOutletR 0 1185.07 0 1185.07
bayOutletL 0 2424.31 0 2424.31
bayOutletR 0 2434.59 0 2434.59
defaultFaces 0 0 0 0
sum -96.7278 -3.85717 0 -100.585


Wall heat fluxes [W]
topExtWall 0.205884 0 0 0.205884
toFluidR -0.102429 0 0 -0.102429
toFluidL -0.102994 0 0 -0.102994
defaultFaces 0 0 0 0
sum 0.000462025 0 0 0.000462025

Time = 31

DILUPBiCG:  Solving for Ux, Initial residual = 0.00513901, Final residual = 9.23683e-07, No Iterations 2
DILUPBiCG:  Solving for Uy, Initial residual = 0.00598227, Final residual = 8.93041e-07, No Iterations 2
DICPCG:  Solving for p_rgh, Initial residual = 0.0723017, Final residual = 7.07203e-05, No Iterations 83
time step continuity errors : sum local = 7.5834e-05, global = -6.64081e-06, cumulative = -5.26162e-05
DILUPBiCG:  Solving for omega, Initial residual = 0.0018263, Final residual = 1.69153e-05, No Iterations 2
DILUPBiCG:  Solving for k, Initial residual = 0.0102167, Final residual = 3.80214e-05, No Iterations 3
Before T+T solve
BiCG:  Solving for T+T, Initial residual = 0.00108815, Final residual = 8.78537e-07, No Iterations 4
Tres = -102.623
TsRes = 0.00111046
ExecutionTime = 15.45 s



Wall heat fluxes [W]
cabHeatTransmissiveWall -3.5258 -5.20487e-16 0 -3.5258
bayHeatTransmissiveWall 3.55652 6.48948e-15 0 3.55652
walls 0 0 0 0
topExtWall 14.9396 7.68321e-14 0 14.9396
toSolidR 0.0977615 -3.16597e-14 0 0.0977615
cabInlet -0.00329013 -2358.34 0 -2358.34
toSolidL 0.0995648 -4.25901e-14 0 0.0995648
passengers -58.2887 -4.56683e-14 0 -58.2887
bottomExtWall 32.6334 -1.36999e-14 0 32.6334
core2 -38.4071 2.59222e-12 0 -38.4071
core1 -48.0803 8.70678e-13 0 -48.0803
bayInletL -0.00150984 -2431.67 0 -2431.67
bayInletR -0.000918775 -2431.67 0 -2431.67
cabOutletL 0 1173.69 0 1173.69
cabOutletR 0 1184.82 0 1184.82
bayOutletL 0 2423.68 0 2423.68
bayOutletR 0 2433.86 0 2433.86
defaultFaces 0 0 0 0
sum -96.9808 -5.61848 0 -102.599


Wall heat fluxes [W]
topExtWall 0.205828 0 0 0.205828
toFluidR -0.102433 0 0 -0.102433
toFluidL -0.103011 0 0 -0.103011
defaultFaces 0 0 0 0
sum 0.000383126 0 0 0.000383126

Time = 32

DILUPBiCG:  Solving for Ux, Initial residual = 0.00513579, Final residual = 5.84607e-06, No Iterations 2
DILUPBiCG:  Solving for Uy, Initial residual = 0.00586571, Final residual = 8.98956e-07, No Iterations 2
DICPCG:  Solving for p_rgh, Initial residual = 0.071226, Final residual = 7.10302e-05, No Iterations 82
time step continuity errors : sum local = 7.68135e-05, global = -7.8084e-06, cumulative = -6.04246e-05
DILUPBiCG:  Solving for omega, Initial residual = 0.00183547, Final residual = 1.78515e-05, No Iterations 2
DILUPBiCG:  Solving for k, Initial residual = 0.00991421, Final residual = 8.78101e-05, No Iterations 2
Before T+T solve
BiCG:  Solving for T+T, Initial residual = 0.00108833, Final residual = 9.55475e-07, No Iterations 4
Tres = -102.687
TsRes = 0.00102609
ExecutionTime = 15.72 s



Wall heat fluxes [W]
cabHeatTransmissiveWall -3.5081 2.0996e-14 0 -3.5081
bayHeatTransmissiveWall 3.53944 -1.44077e-14 0 3.53944
walls 0 0 0 0
topExtWall 14.8863 3.90388e-13 0 14.8863
toSolidR 0.0978059 -2.8841e-15 0 0.0978059
cabInlet -0.00331562 -2358.34 0 -2358.34
toSolidL 0.0995143 -5.93583e-16 0 0.0995143
passengers -58.2602 -3.22293e-13 0 -58.2602
bottomExtWall 32.5307 8.26269e-14 0 32.5307
core2 -38.5139 1.16905e-12 0 -38.5139
core1 -47.9351 7.4678e-14 0 -47.9351
bayInletL -0.00154373 -2431.67 0 -2431.67
bayInletR -0.000931864 -2431.67 0 -2431.67
cabOutletL 0 1173.52 0 1173.52
cabOutletR 0 1184.71 0 1184.71
bayOutletL 0 2423.93 0 2423.93
bayOutletR 0 2433.91 0 2433.91
defaultFaces 0 0 0 0
sum -97.0694 -5.59401 0 -102.663


Wall heat fluxes [W]
topExtWall 0.205775 0 0 0.205775
toFluidR -0.102438 0 0 -0.102438
toFluidL -0.103024 0 0 -0.103024
defaultFaces 0 0 0 0
sum 0.00031257 0 0 0.00031257

Time = 33

DILUPBiCG:  Solving for Ux, Initial residual = 0.00479323, Final residual = 8.30936e-07, No Iterations 2
DILUPBiCG:  Solving for Uy, Initial residual = 0.00546176, Final residual = 9.81712e-07, No Iterations 2
DICPCG:  Solving for p_rgh, Initial residual = 0.0709508, Final residual = 6.69772e-05, No Iterations 282
time step continuity errors : sum local = 7.43278e-05, global = -5.11822e-07, cumulative = -6.09364e-05
DILUPBiCG:  Solving for omega, Initial residual = 0.00178471, Final residual = 1.44752e-05, No Iterations 2
DILUPBiCG:  Solving for k, Initial residual = 0.00968733, Final residual = 8.46256e-05, No Iterations 3
Before T+T solve
BiCG:  Solving for T+T, Initial residual = 0.00110485, Final residual = 9.88368e-07, No Iterations 4
Tres = -100.575
TsRes = 0.000958151
ExecutionTime = 16.19 s



Wall heat fluxes [W]
cabHeatTransmissiveWall -3.49108 8.13508e-15 0 -3.49108
bayHeatTransmissiveWall 3.52275 5.84334e-16 0 3.52275
walls 0 0 0 0
topExtWall 14.8347 -3.82638e-13 0 14.8347
toSolidR 0.0978564 -5.78233e-14 0 0.0978564
cabInlet -0.00332981 -2358.34 0 -2358.34
toSolidL 0.0994579 -1.1514e-14 0 0.0994579
passengers -58.3261 1.03983e-12 0 -58.3261
bottomExtWall 32.4258 3.29404e-13 0 32.4258
core2 -38.6971 -2.66742e-12 0 -38.6971
core1 -48.0461 1.35339e-12 0 -48.0461
bayInletL -0.00157655 -2431.67 0 -2431.67
bayInletR -0.000945148 -2431.67 0 -2431.67
cabOutletL 0 1173.74 0 1173.74
cabOutletR 0 1185.06 0 1185.06
bayOutletL 0 2425.26 0 2425.26
bayOutletR 0 2434.64 0 2434.64
defaultFaces 0 0 0 0
sum -97.5856 -2.96491 0 -100.551


Wall heat fluxes [W]
topExtWall 0.205726 0 0 0.205726
toFluidR -0.102436 0 0 -0.102436
toFluidL -0.103034 0 0 -0.103034
defaultFaces 0 0 0 0
sum 0.000255857 0 0 0.000255857

Time = 34

DILUPBiCG:  Solving for Ux, Initial residual = 0.00475672, Final residual = 8.02602e-07, No Iterations 2
DILUPBiCG:  Solving for Uy, Initial residual = 0.00528582, Final residual = 8.96337e-07, No Iterations 2
DICPCG:  Solving for p_rgh, Initial residual = 0.0657909, Final residual = 6.54887e-05, No Iterations 150
time step continuity errors : sum local = 7.17644e-05, global = -2.53104e-06, cumulative = -6.34674e-05
DILUPBiCG:  Solving for omega, Initial residual = 0.00171632, Final residual = 1.90927e-06, No Iterations 3
DILUPBiCG:  Solving for k, Initial residual = 0.00943173, Final residual = 1.49727e-05, No Iterations 3
Before T+T solve
BiCG:  Solving for T+T, Initial residual = 0.00107986, Final residual = 2.96154e-07, No Iterations 5
Tres = -100.651
TsRes = 0.000882985
ExecutionTime = 16.53 s



Wall heat fluxes [W]
cabHeatTransmissiveWall -3.47433 -2.36222e-15 0 -3.47433
bayHeatTransmissiveWall 3.50674 -1.46786e-14 0 3.50674
walls 0 0 0 0
topExtWall 14.7867 -1.12397e-13 0 14.7867
toSolidR 0.0979485 3.85069e-14 0 0.0979485
cabInlet -0.00333619 -2358.34 0 -2358.34
toSolidL 0.099403 -1.5256e-14 0 0.099403
passengers -58.3558 1.3053e-12 0 -58.3558
bottomExtWall 32.3271 4.04892e-13 0 32.3271
core2 -38.4832 -2.14232e-12 0 -38.4832
core1 -47.9934 -2.49405e-12 0 -47.9934
bayInletL -0.00160832 -2431.67 0 -2431.67
bayInletR -0.000957316 -2431.67 0 -2431.67
cabOutletL 0 1173.92 0 1173.92
cabOutletR 0 1185.11 0 1185.11
bayOutletL 0 2425.48 0 2425.48
bayOutletR 0 2434.03 0 2434.03
defaultFaces 0 0 0 0
sum -97.4948 -3.13082 0 -100.626


Wall heat fluxes [W]
topExtWall 0.205673 0 0 0.205673
toFluidR -0.102435 0 0 -0.102435
toFluidL -0.103046 0 0 -0.103046
defaultFaces 0 0 0 0
sum 0.000192783 0 0 0.000192783

Time = 35

DILUPBiCG:  Solving for Ux, Initial residual = 0.0045329, Final residual = 1.43148e-06, No Iterations 2
DILUPBiCG:  Solving for Uy, Initial residual = 0.00545652, Final residual = 9.25444e-07, No Iterations 2
DICPCG:  Solving for p_rgh, Initial residual = 0.0685088, Final residual = 6.81381e-05, No Iterations 123
time step continuity errors : sum local = 7.78502e-05, global = -3.67551e-06, cumulative = -6.71429e-05
DILUPBiCG:  Solving for omega, Initial residual = 0.00163776, Final residual = 1.68959e-06, No Iterations 3
DILUPBiCG:  Solving for k, Initial residual = 0.00920037, Final residual = 1.30619e-05, No Iterations 3
Before T+T solve
BiCG:  Solving for T+T, Initial residual = 0.00108112, Final residual = 1.04188e-06, No Iterations 4
Tres = -100.763
TsRes = 0.000838035
ExecutionTime = 16.86 s



Wall heat fluxes [W]
cabHeatTransmissiveWall -3.45784 -1.23616e-14 0 -3.45784
bayHeatTransmissiveWall 3.49103 -1.61365e-14 0 3.49103
walls 0 0 0 0
topExtWall 14.7412 4.20168e-13 0 14.7412
toSolidR 0.0980113 -4.7242e-14 0 0.0980113
cabInlet -0.00333657 -2358.34 0 -2358.34
toSolidL 0.0993522 -3.13453e-14 0 0.0993522
passengers -58.3894 1.59821e-12 0 -58.3894
bottomExtWall 32.2356 -4.31357e-13 0 32.2356
core2 -38.567 1.69311e-13 0 -38.567
core1 -47.9962 -3.48528e-12 0 -47.9962
bayInletL -0.00163864 -2431.67 0 -2431.67
bayInletR -0.000968419 -2431.67 0 -2431.67
cabOutletL 0 1173.87 0 1173.87
cabOutletR 0 1185.13 0 1185.13
bayOutletL 0 2425.87 0 2425.87
bayOutletR 0 2433.81 0 2433.81
defaultFaces 0 0 0 0
sum -97.7512 -2.98633 0 -100.738


Wall heat fluxes [W]
topExtWall 0.205631 0 0 0.205631
toFluidR -0.102428 0 0 -0.102428
toFluidL -0.103046 0 0 -0.103046
defaultFaces 0 0 0 0
sum 0.000156686 0 0 0.000156686

Time = 36

DILUPBiCG:  Solving for Ux, Initial residual = 0.00451139, Final residual = 1.61865e-06, No Iterations 2
DILUPBiCG:  Solving for Uy, Initial residual = 0.00532693, Final residual = 9.7071e-07, No Iterations 2
DICPCG:  Solving for p_rgh, Initial residual = 0.0631817, Final residual = 6.26484e-05, No Iterations 171
time step continuity errors : sum local = 7.20366e-05, global = -5.84629e-06, cumulative = -7.29892e-05
DILUPBiCG:  Solving for omega, Initial residual = 0.00162391, Final residual = 1.96677e-06, No Iterations 3
DILUPBiCG:  Solving for k, Initial residual = 0.00899222, Final residual = 1.1311e-05, No Iterations 3
Before T+T solve
BiCG:  Solving for T+T, Initial residual = 0.00108507, Final residual = 1.05635e-06, No Iterations 4
Tres = -101.062
TsRes = 0.000797737
ExecutionTime = 17.23 s



Wall heat fluxes [W]
cabHeatTransmissiveWall -3.44167 6.69184e-16 0 -3.44167
bayHeatTransmissiveWall 3.47556 -7.60856e-15 0 3.47556
walls 0 0 0 0
topExtWall 14.698 -5.46605e-13 0 14.698
toSolidR 0.0980386 2.33305e-14 0 0.0980386
cabInlet -0.00333277 -2358.34 0 -2358.34
toSolidL 0.0993058 5.64166e-14 0 0.0993058
passengers -58.4026 -4.67928e-13 0 -58.4026
bottomExtWall 32.1486 -3.52079e-13 0 32.1486
core2 -38.5968 2.12162e-12 0 -38.5968
core1 -47.9797 -1.87842e-12 0 -47.9797
bayInletL -0.00166772 -2431.67 0 -2431.67
bayInletR -0.000977595 -2431.67 0 -2431.67
cabOutletL 0 1173.95 0 1173.95
cabOutletR 0 1185.11 0 1185.11
bayOutletL 0 2426.16 0 2426.16
bayOutletR 0 2433.32 0 2433.32
defaultFaces 0 0 0 0
sum -97.9073 -3.12818 0 -101.035


Wall heat fluxes [W]
topExtWall 0.205589 0 0 0.205589
toFluidR -0.102422 0 0 -0.102422
toFluidL -0.103046 0 0 -0.103046
defaultFaces 0 0 0 0
sum 0.000120624 0 0 0.000120624

Time = 37

DILUPBiCG:  Solving for Ux, Initial residual = 0.00433892, Final residual = 7.19069e-07, No Iterations 2
DILUPBiCG:  Solving for Uy, Initial residual = 0.00522909, Final residual = 1.13591e-06, No Iterations 2
DICPCG:  Solving for p_rgh, Initial residual = 0.0616071, Final residual = 5.85994e-05, No Iterations 261
time step continuity errors : sum local = 6.7645e-05, global = -1.00331e-06, cumulative = -7.39925e-05
DILUPBiCG:  Solving for omega, Initial residual = 0.00157018, Final residual = 1.4248e-06, No Iterations 3
DILUPBiCG:  Solving for k, Initial residual = 0.00878041, Final residual = 1.04779e-05, No Iterations 3
Before T+T solve
BiCG:  Solving for T+T, Initial residual = 0.00107211, Final residual = 9.41123e-07, No Iterations 4
Tres = -99.183
TsRes = 0.000765021
ExecutionTime = 17.67 s



Wall heat fluxes [W]
cabHeatTransmissiveWall -3.42571 7.98778e-15 0 -3.42571
bayHeatTransmissiveWall 3.46022 -1.08782e-14 0 3.46022
walls 0 0 0 0
topExtWall 14.6572 -2.8147e-13 0 14.6572
toSolidR 0.0980407 -4.11561e-14 0 0.0980407
cabInlet -0.00332658 -2358.34 0 -2358.34
toSolidL 0.0992677 2.24977e-15 0 0.0992677
passengers -58.4301 3.55986e-13 0 -58.4301
bottomExtWall 32.0648 3.21503e-13 0 32.0648
core2 -38.6108 -1.18064e-14 0 -38.6108
core1 -47.96 -1.62053e-12 0 -47.96
bayInletL -0.00169499 -2431.67 0 -2431.67
bayInletR -0.000986554 -2431.67 0 -2431.67
cabOutletL 0 1174.04 0 1174.04
cabOutletR 0 1185.1 0 1185.1
bayOutletL 0 2427.64 0 2427.64
bayOutletR 0 2433.79 0 2433.79
defaultFaces 0 0 0 0
sum -98.0531 -1.10284 0 -99.1559


Wall heat fluxes [W]
topExtWall 0.20555 0 0 0.20555
toFluidR -0.102416 0 0 -0.102416
toFluidL -0.103044 0 0 -0.103044
defaultFaces 0 0 0 0
sum 8.95211e-05 0 0 8.95211e-05

Time = 38

DILUPBiCG:  Solving for Ux, Initial residual = 0.00424762, Final residual = 2.25955e-06, No Iterations 2
DILUPBiCG:  Solving for Uy, Initial residual = 0.0050119, Final residual = 7.15591e-07, No Iterations 2
DICPCG:  Solving for p_rgh, Initial residual = 0.0599665, Final residual = 5.9186e-05, No Iterations 269
time step continuity errors : sum local = 6.8742e-05, global = -1.44551e-06, cumulative = -7.5438e-05
DILUPBiCG:  Solving for omega, Initial residual = 0.00153366, Final residual = 1.23793e-05, No Iterations 2
DILUPBiCG:  Solving for k, Initial residual = 0.00857341, Final residual = 1.00451e-05, No Iterations 3
Before T+T solve
BiCG:  Solving for T+T, Initial residual = 0.00106719, Final residual = 8.59853e-07, No Iterations 4
Tres = -98.8266
TsRes = 0.000738128
ExecutionTime = 18.11 s



Wall heat fluxes [W]
cabHeatTransmissiveWall -3.40988 -5.47876e-15 0 -3.40988
bayHeatTransmissiveWall 3.44507 -7.97682e-15 0 3.44507
walls 0 0 0 0
topExtWall 14.6183 -5.30801e-13 0 14.6183
toSolidR 0.0980255 -4.05167e-15 0 0.0980255
cabInlet -0.00331922 -2358.34 0 -2358.34
toSolidL 0.0992322 -1.18933e-15 0 0.0992322
passengers -58.4696 1.79076e-12 0 -58.4696
bottomExtWall 31.9843 -4.1725e-13 0 31.9843
core2 -38.5436 -3.04902e-12 0 -38.5436
core1 -47.9392 8.74171e-13 0 -47.9392
bayInletL -0.00172218 -2431.67 0 -2431.67
bayInletR -0.000995578 -2431.67 0 -2431.67
cabOutletL 0 1174.22 0 1174.22
cabOutletR 0 1185.05 0 1185.05
bayOutletL 0 2428.43 0 2428.43
bayOutletR 0 2433.29 0 2433.29
defaultFaces 0 0 0 0
sum -98.1233 -0.675578 0 -98.7989


Wall heat fluxes [W]
topExtWall 0.205511 0 0 0.205511
toFluidR -0.102408 0 0 -0.102408
toFluidL -0.103041 0 0 -0.103041
defaultFaces 0 0 0 0
sum 6.16871e-05 0 0 6.16871e-05

Time = 39

DILUPBiCG:  Solving for Ux, Initial residual = 0.00424193, Final residual = 2.65355e-06, No Iterations 2
DILUPBiCG:  Solving for Uy, Initial residual = 0.00509346, Final residual = 1.14501e-06, No Iterations 2
DICPCG:  Solving for p_rgh, Initial residual = 0.0684356, Final residual = 6.59567e-05, No Iterations 99
time step continuity errors : sum local = 7.83139e-05, global = -5.0491e-06, cumulative = -8.04871e-05
DILUPBiCG:  Solving for omega, Initial residual = 0.00152373, Final residual = 1.49406e-06, No Iterations 3
DILUPBiCG:  Solving for k, Initial residual = 0.00840971, Final residual = 9.41892e-06, No Iterations 3
Before T+T solve
BiCG:  Solving for T+T, Initial residual = 0.00108398, Final residual = 7.27891e-07, No Iterations 4
Tres = -99.6436
TsRes = 0.000716755
ExecutionTime = 18.45 s



Wall heat fluxes [W]
cabHeatTransmissiveWall -3.39413 -5.026e-15 0 -3.39413
bayHeatTransmissiveWall 3.43006 -1.41112e-14 0 3.43006
walls 0 0 0 0
topExtWall 14.5815 -9.50641e-13 0 14.5815
toSolidR 0.0980035 5.77608e-16 0 0.0980035
cabInlet -0.00331206 -2358.34 0 -2358.34
toSolidL 0.0992034 -4.57808e-14 0 0.0992034
passengers -58.4687 -4.31879e-13 0 -58.4687
bottomExtWall 31.9065 3.23912e-13 0 31.9065
core2 -38.6007 2.57789e-13 0 -38.6007
core1 -48.0618 1.71038e-12 0 -48.0618
bayInletL -0.00174892 -2431.67 0 -2431.67
bayInletR -0.00100382 -2431.67 0 -2431.67
cabOutletL 0 1174.14 0 1174.14
cabOutletR 0 1185.19 0 1185.19
bayOutletL 0 2429.07 0 2429.07
bayOutletR 0 2432.07 0 2432.07
defaultFaces 0 0 0 0
sum -98.4162 -1.19911 0 -99.6153


Wall heat fluxes [W]
topExtWall 0.205473 0 0 0.205473
toFluidR -0.102398 0 0 -0.102398
toFluidL -0.103036 0 0 -0.103036
defaultFaces 0 0 0 0
sum 3.86349e-05 0 0 3.86349e-05

Time = 40

DILUPBiCG:  Solving for Ux, Initial residual = 0.00435882, Final residual = 7.58567e-07, No Iterations 2
DILUPBiCG:  Solving for Uy, Initial residual = 0.00504775, Final residual = 7.08077e-07, No Iterations 2
DICPCG:  Solving for p_rgh, Initial residual = 0.0639637, Final residual = 6.21988e-05, No Iterations 266
time step continuity errors : sum local = 7.5232e-05, global = -5.15774e-07, cumulative = -8.10029e-05
DILUPBiCG:  Solving for omega, Initial residual = 0.00151728, Final residual = 1.4737e-06, No Iterations 3
DILUPBiCG:  Solving for k, Initial residual = 0.00822884, Final residual = 9.02916e-06, No Iterations 3
Before T+T solve
BiCG:  Solving for T+T, Initial residual = 0.00108776, Final residual = 7.2429e-07, No Iterations 4
Tres = -97.6711
TsRes = 0.000699109
ExecutionTime = 18.9 s



Wall heat fluxes [W]
cabHeatTransmissiveWall -3.37872 2.01168e-14 0 -3.37872
bayHeatTransmissiveWall 3.41527 1.46925e-14 0 3.41527
walls 0 0 0 0
topExtWall 14.5465 -2.0777e-15 0 14.5465
toSolidR 0.0979829 -2.15926e-14 0 0.0979829
cabInlet -0.00330528 -2358.34 0 -2358.34
toSolidL 0.0991851 -4.30238e-15 0 0.0991851
passengers -58.4715 -1.47122e-12 0 -58.4715
bottomExtWall 31.8312 3.58581e-13 0 31.8312
core2 -38.4306 2.39134e-12 0 -38.4306
core1 -48.1074 -5.37949e-12 0 -48.1074
bayInletL -0.00177457 -2431.67 0 -2431.67
bayInletR -0.00100991 -2431.67 0 -2431.67
cabOutletL 0 1174.25 0 1174.25
cabOutletR 0 1185.43 0 1185.43
bayOutletL 0 2430.77 0 2430.77
bayOutletR 0 2431.98 0 2431.98
defaultFaces 0 0 0 0
sum -98.4042 0.76212 0 -97.6421


Wall heat fluxes [W]
topExtWall 0.205435 0 0 0.205435
toFluidR -0.102387 0 0 -0.102387
toFluidL -0.103029 0 0 -0.103029
defaultFaces 0 0 0 0
sum 1.99786e-05 0 0 1.99786e-05

Time = 41

DILUPBiCG:  Solving for Ux, Initial residual = 0.00441037, Final residual = 1.31911e-06, No Iterations 2
DILUPBiCG:  Solving for Uy, Initial residual = 0.00519025, Final residual = 8.81574e-07, No Iterations 2
DICPCG:  Solving for p_rgh, Initial residual = 0.0749674, Final residual = 7.08163e-05, No Iterations 84
time step continuity errors : sum local = 9.0622e-05, global = -9.94268e-06, cumulative = -9.09456e-05
DILUPBiCG:  Solving for omega, Initial residual = 0.0018728, Final residual = 1.14629e-05, No Iterations 2
DILUPBiCG:  Solving for k, Initial residual = 0.00812552, Final residual = 6.98819e-05, No Iterations 2
Before T+T solve
BiCG:  Solving for T+T, Initial residual = 0.0012015, Final residual = 3.41063e-07, No Iterations 5
Tres = -100.285
TsRes = 0.000674302
ExecutionTime = 19.18 s



Wall heat fluxes [W]
cabHeatTransmissiveWall -3.36336 -2.84812e-15 0 -3.36336
bayHeatTransmissiveWall 3.40073 5.01943e-15 0 3.40073
walls 0 0 0 0
topExtWall 14.5135 6.85132e-13 0 14.5135
toSolidR 0.097958 4.00109e-14 0 0.097958
cabInlet -0.00329973 -2358.34 0 -2358.34
toSolidL 0.0991785 1.24142e-14 0 0.0991785
passengers -58.4256 3.21304e-12 0 -58.4256
bottomExtWall 31.7586 -1.10742e-13 0 31.7586
core2 -38.6455 6.17634e-13 0 -38.6455
core1 -48.1466 -2.16117e-12 0 -48.1466
bayInletL -0.00179826 -2431.67 0 -2431.67
bayInletR -0.00101528 -2431.67 0 -2431.67
cabOutletL 0 1174.16 0 1174.16
cabOutletR 0 1185.38 0 1185.38
bayOutletL 0 2430.86 0 2430.86
bayOutletR -0.00959663 2429.74 0 2429.73
defaultFaces 0 0 0 0
sum -98.7268 -1.52869 0 -100.256


Wall heat fluxes [W]
topExtWall 0.205395 0 0 0.205395
toFluidR -0.102378 0 0 -0.102378
toFluidL -0.103024 0 0 -0.103024
defaultFaces 0 0 0 0
sum -6.23233e-06 0 0 -6.23233e-06

Time = 42

DILUPBiCG:  Solving for Ux, Initial residual = 0.00434722, Final residual = 3.31497e-06, No Iterations 2
DILUPBiCG:  Solving for Uy, Initial residual = 0.0052595, Final residual = 1.51656e-06, No Iterations 2
DICPCG:  Solving for p_rgh, Initial residual = 0.0608342, Final residual = 5.52413e-05, No Iterations 293
time step continuity errors : sum local = 6.53016e-05, global = 5.44289e-07, cumulative = -9.04013e-05
DILUPBiCG:  Solving for omega, Initial residual = 0.00169186, Final residual = 9.94987e-06, No Iterations 2
DILUPBiCG:  Solving for k, Initial residual = 0.00817935, Final residual = 7.10192e-05, No Iterations 2
Before T+T solve
BiCG:  Solving for T+T, Initial residual = 0.00123783, Final residual = 5.64662e-07, No Iterations 5
Tres = -96.5723
TsRes = 0.0006561
ExecutionTime = 19.65 s



Wall heat fluxes [W]
cabHeatTransmissiveWall -3.34813 -1.02991e-15 0 -3.34813
bayHeatTransmissiveWall 3.38643 8.90643e-16 0 3.38643
walls 0 0 0 0
topExtWall 14.4821 -6.07858e-13 0 14.4821
toSolidR 0.0979353 -9.213e-15 0 0.0979353
cabInlet -0.003296 -2358.34 0 -2358.34
toSolidL 0.0991921 -5.81437e-14 0 0.0991921
passengers -58.3989 -3.5364e-13 0 -58.3989
bottomExtWall 31.6877 -2.149e-14 0 31.6877
core2 -38.6314 -4.90857e-12 0 -38.6314
core1 -48.1383 9.56344e-13 0 -48.1383
bayInletL -0.00182166 -2431.67 0 -2431.67
bayInletR -0.00102057 -2431.67 0 -2431.67
cabOutletL 0 1174.34 0 1174.34
cabOutletR 0 1185.7 0 1185.7
bayOutletL 0 2433.25 0 2433.25
bayOutletR -0.0126104 2430.62 0 2430.61
defaultFaces 0 0 0 0
sum -98.7821 2.24055 0 -96.5415


Wall heat fluxes [W]
topExtWall 0.205357 0 0 0.205357
toFluidR -0.102366 0 0 -0.102366
toFluidL -0.103015 0 0 -0.103015
defaultFaces 0 0 0 0
sum -2.3426e-05 0 0 -2.3426e-05

Time = 43

DILUPBiCG:  Solving for Ux, Initial residual = 0.00496041, Final residual = 1.53585e-06, No Iterations 2
DILUPBiCG:  Solving for Uy, Initial residual = 0.00585395, Final residual = 1.4962e-06, No Iterations 2
DICPCG:  Solving for p_rgh, Initial residual = 0.0652675, Final residual = 6.40577e-05, No Iterations 154
time step continuity errors : sum local = 7.67313e-05, global = -4.6111e-06, cumulative = -9.50124e-05
DILUPBiCG:  Solving for omega, Initial residual = 0.00166406, Final residual = 9.42944e-06, No Iterations 2
DILUPBiCG:  Solving for k, Initial residual = 0.00792994, Final residual = 6.95381e-05, No Iterations 2
Before T+T solve
BiCG:  Solving for T+T, Initial residual = 0.00118421, Final residual = 3.41325e-07, No Iterations 5
Tres = -97.7718
TsRes = 0.00064017
ExecutionTime = 19.99 s



Wall heat fluxes [W]
cabHeatTransmissiveWall -3.33298 3.83298e-15 0 -3.33298
bayHeatTransmissiveWall 3.37202 1.7029e-14 0 3.37202
walls 0 0 0 0
topExtWall 14.4523 -9.65044e-13 0 14.4523
toSolidR 0.0979142 1.55175e-14 0 0.0979142
cabInlet -0.0032938 -2358.34 0 -2358.34
toSolidL 0.0992216 3.1104e-14 0 0.0992216
passengers -58.413 9.2289e-13 0 -58.413
bottomExtWall 31.6212 -1.1364e-13 0 31.6212
core2 -38.5216 2.9801e-12 0 -38.5216
core1 -48.3527 1.4924e-12 0 -48.3527
bayInletL -0.00184619 -2431.67 0 -2431.67
bayInletR -0.00102508 -2431.67 0 -2431.67
cabOutletL 0 1173.96 0 1173.96
cabOutletR 0 1185.7 0 1185.7
bayOutletL 0 2432.42 0 2432.42
bayOutletR -0.00822285 2430.84 0 2430.83
defaultFaces 0 0 0 0
sum -98.992 1.25174 0 -97.7403


Wall heat fluxes [W]
topExtWall 0.20532 0 0 0.20532
toFluidR -0.102352 0 0 -0.102352
toFluidL -0.103004 0 0 -0.103004
defaultFaces 0 0 0 0
sum -3.67049e-05 0 0 -3.67049e-05

Time = 44

DILUPBiCG:  Solving for Ux, Initial residual = 0.00464367, Final residual = 9.36601e-07, No Iterations 2
DILUPBiCG:  Solving for Uy, Initial residual = 0.00576864, Final residual = 1.02842e-06, No Iterations 2
DICPCG:  Solving for p_rgh, Initial residual = 0.0682537, Final residual = 6.46645e-05, No Iterations 166
time step continuity errors : sum local = 7.66203e-05, global = 1.42607e-06, cumulative = -9.35863e-05
DILUPBiCG:  Solving for omega, Initial residual = 0.00169126, Final residual = 9.86767e-06, No Iterations 2
DILUPBiCG:  Solving for k, Initial residual = 0.00787259, Final residual = 6.68765e-05, No Iterations 2
Before T+T solve
BiCG:  Solving for T+T, Initial residual = 0.00118901, Final residual = 5.85482e-07, No Iterations 5
Tres = -95.4634
TsRes = 0.000625623
ExecutionTime = 20.34 s



Wall heat fluxes [W]
cabHeatTransmissiveWall -3.31782 -1.1341e-14 0 -3.31782
bayHeatTransmissiveWall 3.35766 -1.4972e-14 0 3.35766
walls 0 0 0 0
topExtWall 14.4243 1.73084e-12 0 14.4243
toSolidR 0.0978945 5.55252e-14 0 0.0978945
cabInlet -0.00329316 -2358.34 0 -2358.34
toSolidL 0.0992579 -1.23762e-14 0 0.0992579
passengers -58.3571 -8.98838e-13 0 -58.3571
bottomExtWall 31.5541 -1.64661e-12 0 31.5541
core2 -38.5963 3.4692e-12 0 -38.5963
core1 -48.3206 -2.69644e-13 0 -48.3206
bayInletL -0.00186685 -2431.67 0 -2431.67
bayInletR -0.00102836 -2431.67 0 -2431.67
cabOutletL 0 1174.06 0 1174.06
cabOutletR 0 1185.79 0 1185.79
bayOutletL -0.0140276 2433.13 0 2433.12
bayOutletR -0.00659135 2432.34 0 2432.33
defaultFaces 0 0 0 0
sum -99.0854 3.65435 0 -95.4311


Wall heat fluxes [W]
topExtWall 0.205283 0 0 0.205283
toFluidR -0.102338 0 0 -0.102338
toFluidL -0.102993 0 0 -0.102993
defaultFaces 0 0 0 0
sum -4.76381e-05 0 0 -4.76381e-05

Time = 45

DILUPBiCG:  Solving for Ux, Initial residual = 0.00450581, Final residual = 1.0392e-06, No Iterations 2
DILUPBiCG:  Solving for Uy, Initial residual = 0.00568059, Final residual = 8.72182e-07, No Iterations 2
DICPCG:  Solving for p_rgh, Initial residual = 0.0697436, Final residual = 6.91703e-05, No Iterations 157
time step continuity errors : sum local = 8.10535e-05, global = 5.3895e-06, cumulative = -8.81968e-05
DILUPBiCG:  Solving for omega, Initial residual = 0.00155242, Final residual = 3.58203e-06, No Iterations 3
DILUPBiCG:  Solving for k, Initial residual = 0.00811536, Final residual = 6.57975e-05, No Iterations 2
Before T+T solve
BiCG:  Solving for T+T, Initial residual = 0.0011391, Final residual = 5.37229e-07, No Iterations 5
Tres = -93.6547
TsRes = 0.000612395
ExecutionTime = 20.7 s



Wall heat fluxes [W]
cabHeatTransmissiveWall -3.30261 5.79426e-15 0 -3.30261
bayHeatTransmissiveWall 3.34335 -1.82228e-14 0 3.34335
walls 0 0 0 0
topExtWall 14.3978 -2.14504e-13 0 14.3978
toSolidR 0.0978729 -5.60398e-14 0 0.0978729
cabInlet -0.0032938 -2358.34 0 -2358.34
toSolidL 0.0992921 4.14464e-14 0 0.0992921
passengers -58.4206 9.69015e-14 0 -58.4206
bottomExtWall 31.4941 -1.20222e-12 0 31.4941
core2 -38.5145 1.09696e-12 0 -38.5145
core1 -48.2006 -3.06907e-12 0 -48.2006
bayInletL -0.00188436 -2431.67 0 -2431.67
bayInletR -0.00102926 -2431.67 0 -2431.67
cabOutletL 0 1174.19 0 1174.19
cabOutletR 0 1185.6 0 1185.6
bayOutletL -0.0198464 2433.16 0 2433.14
bayOutletR -0.00553925 2434.13 0 2434.13
defaultFaces 0 0 0 0
sum -99.0375 5.41608 0 -93.6214


Wall heat fluxes [W]
topExtWall 0.205246 0 0 0.205246
toFluidR -0.102322 0 0 -0.102322
toFluidL -0.102981 0 0 -0.102981
defaultFaces 0 0 0 0
sum -5.75975e-05 0 0 -5.75975e-05

Time = 46

DILUPBiCG:  Solving for Ux, Initial residual = 0.00442132, Final residual = 9.31892e-07, No Iterations 2
[...]
walls 0 0 0 0
topExtWall 17.8533 -8.82879e-13 0 17.8533
toSolidR 0.150536 -3.02681e-13 0 0.150536
cabInlet 0.0179061 -2358.34 0 -2358.32
toSolidL 0.108412 7.76706e-14 0 0.108412
passengers -58.8879 -7.21913e-13 0 -58.8879
bottomExtWall 32.6687 5.24229e-13 0 32.6687
core2 -38.7171 -5.07291e-13 0 -38.7171
core1 -48.3901 3.24694e-13 0 -48.3901
bayInletL 0.00478529 -2431.67 0 -2431.66
bayInletR 0.00859789 -2431.67 0 -2431.66
cabOutletL 0 1204.12 0 1204.12
cabOutletR 0 1191.66 0 1191.66
bayOutletL 0.0419657 2667.89 0 2667.93
bayOutletR 0.0521662 2244.07 0 2244.13
defaultFaces 0 0 0 0
sum -95.0873 86.0728 0 -9.01451


Wall heat fluxes [W]
topExtWall 0.22212 0 0 0.22212
toFluidR -0.108083 0 0 -0.108083
toFluidL -0.111788 0 0 -0.111788
defaultFaces 0 0 0 0
sum 0.0022488 0 0 0.0022488

Time = 1990

DILUPBiCG:  Solving for Ux, Initial residual = 0.000375811, Final residual = 2.23228e-07, No Iterations 2
DILUPBiCG:  Solving for Uy, Initial residual = 0.000288473, Final residual = 4.97962e-08, No Iterations 2
DICPCG:  Solving for p_rgh, Initial residual = 0.0452937, Final residual = 4.47716e-05, No Iterations 54
time step continuity errors : sum local = 4.69611e-05, global = -8.38842e-06, cumulative = 1.2816e-06
DILUPBiCG:  Solving for omega, Initial residual = 0.000203447, Final residual = 3.95263e-07, No Iterations 3
DILUPBiCG:  Solving for k, Initial residual = 0.0003178, Final residual = 2.46222e-06, No Iterations 2
Before T+T solve
BiCG:  Solving for T+T, Initial residual = 0.000567529, Final residual = 2.50486e-07, No Iterations 5
Tres = -10.3772
TsRes = -0.0033499
ExecutionTime = 632.24 s



Wall heat fluxes [W]
cabHeatTransmissiveWall -3.80863 7.75743e-16 0 -3.80863
bayHeatTransmissiveWall 3.81007 -8.51127e-15 0 3.81007
walls 0 0 0 0
topExtWall 17.8836 -6.80659e-13 0 17.8836
toSolidR 0.155962 -2.8532e-15 0 0.155962
cabInlet 0.0176838 -2358.34 0 -2358.32
toSolidL 0.128098 3.00658e-13 0 0.128098
passengers -58.9022 1.22479e-12 0 -58.9022
bottomExtWall 32.669 -2.6848e-13 0 32.669
core2 -38.7179 -9.37562e-13 0 -38.7179
core1 -48.3631 8.19611e-13 0 -48.3631
bayInletL 0.00478458 -2431.67 0 -2431.66
bayInletR 0.00860423 -2431.67 0 -2431.66
cabOutletL 0 1203.82 0 1203.82
cabOutletR 0 1190.9 0 1190.9
bayOutletL 0.0420217 2667.89 0 2667.93
bayOutletR 0.0521438 2243.76 0 2243.81
defaultFaces 0 0 0 0
sum -95.0199 84.7017 0 -10.3181


Wall heat fluxes [W]
topExtWall 0.22311 0 0 0.22311
toFluidR -0.108745 0 0 -0.108745
toFluidL -0.1112 0 0 -0.1112
defaultFaces 0 0 0 0
sum 0.00316453 0 0 0.00316453

Time = 1991

DILUPBiCG:  Solving for Ux, Initial residual = 0.00037888, Final residual = 8.81008e-08, No Iterations 2
DILUPBiCG:  Solving for Uy, Initial residual = 0.000292172, Final residual = 7.81071e-08, No Iterations 2
DICPCG:  Solving for p_rgh, Initial residual = 0.0464506, Final residual = 4.54748e-05, No Iterations 262
time step continuity errors : sum local = 4.75349e-05, global = -1.90934e-07, cumulative = 1.09066e-06
DILUPBiCG:  Solving for omega, Initial residual = 0.000213495, Final residual = 2.0944e-06, No Iterations 2
DILUPBiCG:  Solving for k, Initial residual = 0.000319621, Final residual = 1.99559e-06, No Iterations 2
Before T+T solve
BiCG:  Solving for T+T, Initial residual = 0.000579478, Final residual = 2.00312e-07, No Iterations 5
Tres = -7.9394
TsRes = -0.00453012
ExecutionTime = 632.68 s



Wall heat fluxes [W]
cabHeatTransmissiveWall -3.80815 3.52509e-15 0 -3.80815
bayHeatTransmissiveWall 3.80962 -2.06132e-15 0 3.80962
walls 0 0 0 0
topExtWall 17.9379 -1.24044e-12 0 17.9379
toSolidR 0.162524 -1.3895e-13 0 0.162524
cabInlet 0.0173741 -2358.34 0 -2358.32
toSolidL 0.143773 3.14583e-14 0 0.143773
passengers -58.8829 1.5714e-12 0 -58.8829
bottomExtWall 32.6692 4.53527e-13 0 32.6692
core2 -38.7158 8.10389e-13 0 -38.7158
core1 -48.415 1.68315e-12 0 -48.415
bayInletL 0.00478413 -2431.67 0 -2431.66
bayInletR 0.0086088 -2431.67 0 -2431.66
cabOutletL 0 1205.18 0 1205.18
cabOutletR 0 1191.6 0 1191.6
bayOutletL 0.0420939 2668.06 0 2668.11
bayOutletR 0.0521464 2243.94 0 2243.99
defaultFaces 0 0 0 0
sum -94.9738 87.1137 0 -7.86008


Wall heat fluxes [W]
topExtWall 0.223917 0 0 0.223917
toFluidR -0.108698 0 0 -0.108698
toFluidL -0.111186 0 0 -0.111186
defaultFaces 0 0 0 0
sum 0.00403285 0 0 0.00403285

Time = 1992

DILUPBiCG:  Solving for Ux, Initial residual = 0.000378472, Final residual = 7.76134e-08, No Iterations 2
DILUPBiCG:  Solving for Uy, Initial residual = 0.000305066, Final residual = 1.06441e-07, No Iterations 2
DICPCG:  Solving for p_rgh, Initial residual = 0.0431258, Final residual = 4.30134e-05, No Iterations 65
time step continuity errors : sum local = 4.43414e-05, global = -8.24869e-07, cumulative = 2.65796e-07
DILUPBiCG:  Solving for omega, Initial residual = 0.000207254, Final residual = 1.54618e-06, No Iterations 2
DILUPBiCG:  Solving for k, Initial residual = 0.000320204, Final residual = 2.13105e-06, No Iterations 2
Before T+T solve
BiCG:  Solving for T+T, Initial residual = 0.000574647, Final residual = 2.75415e-07, No Iterations 5
Tres = -8.11819
TsRes = -0.0059908
ExecutionTime = 632.93 s



Wall heat fluxes [W]
cabHeatTransmissiveWall -3.80765 -4.88621e-15 0 -3.80765
bayHeatTransmissiveWall 3.80919 3.072e-15 0 3.80919
walls 0 0 0 0
topExtWall 17.9851 4.11401e-13 0 17.9851
toSolidR 0.168268 6.84475e-14 0 0.168268
cabInlet 0.0170289 -2358.34 0 -2358.32
toSolidL 0.163119 -2.04355e-14 0 0.163119
passengers -58.8714 1.59747e-13 0 -58.8714
bottomExtWall 32.6695 -5.60436e-13 0 32.6695
core2 -38.7123 -7.19634e-13 0 -38.7123
core1 -48.3884 -5.84062e-13 0 -48.3884
bayInletL 0.00478322 -2431.67 0 -2431.66
bayInletR 0.00861336 -2431.67 0 -2431.66
cabOutletL 0 1205.35 0 1205.35
cabOutletR 0 1191.29 0 1191.29
bayOutletL 0.0421731 2668.13 0 2668.17
bayOutletR 0.0521382 2243.74 0 2243.8
defaultFaces 0 0 0 0
sum -94.8599 86.8441 0 -8.01579


Wall heat fluxes [W]
topExtWall 0.224543 0 0 0.224543
toFluidR -0.109335 0 0 -0.109335
toFluidL -0.110983 0 0 -0.110983
defaultFaces 0 0 0 0
sum 0.00422536 0 0 0.00422536

Time = 1993

DILUPBiCG:  Solving for Ux, Initial residual = 0.000379203, Final residual = 7.55478e-08, No Iterations 2
DILUPBiCG:  Solving for Uy, Initial residual = 0.000302085, Final residual = 2.00327e-07, No Iterations 2
DICPCG:  Solving for p_rgh, Initial residual = 0.0390212, Final residual = 3.77357e-05, No Iterations 80
time step continuity errors : sum local = 3.8566e-05, global = 2.91458e-07, cumulative = 5.57254e-07
DILUPBiCG:  Solving for omega, Initial residual = 0.000204611, Final residual = 1.70342e-06, No Iterations 2
DILUPBiCG:  Solving for k, Initial residual = 0.000320329, Final residual = 2.2655e-06, No Iterations 2
Before T+T solve
BiCG:  Solving for T+T, Initial residual = 0.00057729, Final residual = 2.64836e-07, No Iterations 5
Tres = -7.86805
TsRes = -0.00727869
ExecutionTime = 633.21 s



Wall heat fluxes [W]
cabHeatTransmissiveWall -3.80715 -5.25374e-15 0 -3.80715
bayHeatTransmissiveWall 3.80877 -2.33863e-15 0 3.80877
walls 0 0 0 0
topExtWall 18.0056 -5.83773e-13 0 18.0056
toSolidR 0.174696 2.79768e-13 0 0.174696
cabInlet 0.0166903 -2358.34 0 -2358.32
toSolidL 0.157581 1.89091e-13 0 0.157581
passengers -58.901 -6.78699e-13 0 -58.901
bottomExtWall 32.6699 2.11468e-13 0 32.6699
core2 -38.7093 1.31882e-12 0 -38.7093
core1 -48.3875 8.75136e-13 0 -48.3875
bayInletL 0.00478159 -2431.67 0 -2431.66
bayInletR 0.00861729 -2431.67 0 -2431.66
cabOutletL 0 1206.03 0 1206.03
cabOutletR 0 1191.02 0 1191.02
bayOutletL 0.0422646 2668.32 0 2668.37
bayOutletR 0.0521213 2243.38 0 2243.44
defaultFaces 0 0 0 0
sum -94.8639 87.0976 0 -7.76632


Wall heat fluxes [W]
topExtWall 0.224883 0 0 0.224883
toFluidR -0.109444 0 0 -0.109444
toFluidL -0.112454 0 0 -0.112454
defaultFaces 0 0 0 0
sum 0.00298514 0 0 0.00298514

Time = 1994

DILUPBiCG:  Solving for Ux, Initial residual = 0.000371057, Final residual = 6.69679e-08, No Iterations 2
DILUPBiCG:  Solving for Uy, Initial residual = 0.00029757, Final residual = 5.46241e-08, No Iterations 2
DICPCG:  Solving for p_rgh, Initial residual = 0.0434585, Final residual = 4.27848e-05, No Iterations 74
time step continuity errors : sum local = 4.44533e-05, global = 1.4519e-06, cumulative = 2.00916e-06
DILUPBiCG:  Solving for omega, Initial residual = 0.000200692, Final residual = 1.43197e-06, No Iterations 2
DILUPBiCG:  Solving for k, Initial residual = 0.00032084, Final residual = 2.23342e-06, No Iterations 2
Before T+T solve
BiCG:  Solving for T+T, Initial residual = 0.000579196, Final residual = 2.80134e-07, No Iterations 5
Tres = -7.55419
TsRes = -0.00755054
ExecutionTime = 633.48 s



Wall heat fluxes [W]
cabHeatTransmissiveWall -3.80666 -3.59872e-15 0 -3.80666
bayHeatTransmissiveWall 3.80833 1.58751e-15 0 3.80833
walls 0 0 0 0
topExtWall 18.0598 1.04044e-12 0 18.0598
toSolidR 0.181262 -1.90845e-14 0 0.181262
cabInlet 0.0163901 -2358.34 0 -2358.32
toSolidL 0.156387 -4.65423e-14 0 0.156387
passengers -58.9051 3.6456e-13 0 -58.9051
bottomExtWall 32.6702 -1.0176e-13 0 32.6702
core2 -38.7076 1.88349e-12 0 -38.7076
core1 -48.3936 -3.63773e-12 0 -48.3936
bayInletL 0.0047808 -2431.67 0 -2431.66
bayInletR 0.00861648 -2431.67 0 -2431.66
cabOutletL 0 1206.66 0 1206.66
cabOutletR 0 1190.58 0 1190.58
bayOutletL 0.0423694 2668.5 0 2668.55
bayOutletR 0.0521193 2243.29 0 2243.34
defaultFaces 0 0 0 0
sum -94.8128 87.3644 0 -7.44839


Wall heat fluxes [W]
topExtWall 0.225974 0 0 0.225974
toFluidR -0.109909 0 0 -0.109909
toFluidL -0.113084 0 0 -0.113084
defaultFaces 0 0 0 0
sum 0.00298012 0 0 0.00298012

Time = 1995

DILUPBiCG:  Solving for Ux, Initial residual = 0.000383602, Final residual = 1.70606e-07, No Iterations 2
DILUPBiCG:  Solving for Uy, Initial residual = 0.000296992, Final residual = 1.783e-09, No Iterations 3
DICPCG:  Solving for p_rgh, Initial residual = 0.0389575, Final residual = 3.80571e-05, No Iterations 149
time step continuity errors : sum local = 3.81139e-05, global = 1.57117e-06, cumulative = 3.58033e-06
DILUPBiCG:  Solving for omega, Initial residual = 0.000203944, Final residual = 3.18568e-07, No Iterations 3
DILUPBiCG:  Solving for k, Initial residual = 0.000322463, Final residual = 4.31155e-07, No Iterations 3
Before T+T solve
BiCG:  Solving for T+T, Initial residual = 0.000576031, Final residual = 2.86969e-07, No Iterations 5
Tres = -7.57787
TsRes = -0.00764697
ExecutionTime = 633.83 s



Wall heat fluxes [W]
cabHeatTransmissiveWall -3.80614 -3.3189e-15 0 -3.80614
bayHeatTransmissiveWall 3.8079 5.40027e-15 0 3.8079
walls 0 0 0 0
topExtWall 18.0906 -2.18516e-12 0 18.0906
toSolidR 0.187999 4.23209e-14 0 0.187999
cabInlet 0.0161406 -2358.34 0 -2358.32
toSolidL 0.157922 -8.04678e-14 0 0.157922
passengers -58.9149 1.09185e-12 0 -58.9149
bottomExtWall 32.6705 8.41504e-13 0 32.6705
core2 -38.7083 5.34855e-13 0 -38.7083
core1 -48.3888 3.49327e-12 0 -48.3888
bayInletL 0.00478116 -2431.67 0 -2431.66
bayInletR 0.00861631 -2431.67 0 -2431.66
cabOutletL 0 1206.78 0 1206.78
cabOutletR 0 1190.22 0 1190.22
bayOutletL 0.042481 2668.69 0 2668.73
bayOutletR 0.0521263 2243.29 0 2243.34
defaultFaces 0 0 0 0
sum -94.7791 87.3147 0 -7.4644


Wall heat fluxes [W]
topExtWall 0.22657 0 0 0.22657
toFluidR -0.110204 0 0 -0.110204
toFluidL -0.112646 0 0 -0.112646
defaultFaces 0 0 0 0
sum 0.00371979 0 0 0.00371979

Time = 1996

DILUPBiCG:  Solving for Ux, Initial residual = 0.000372222, Final residual = 7.23908e-08, No Iterations 2
DILUPBiCG:  Solving for Uy, Initial residual = 0.000297571, Final residual = 9.00145e-08, No Iterations 2
DICPCG:  Solving for p_rgh, Initial residual = 0.0328087, Final residual = 3.21272e-05, No Iterations 66
time step continuity errors : sum local = 3.21389e-05, global = 1.9842e-06, cumulative = 5.56453e-06
DILUPBiCG:  Solving for omega, Initial residual = 0.000195699, Final residual = 3.10203e-08, No Iterations 4
DILUPBiCG:  Solving for k, Initial residual = 0.000322949, Final residual = 9.70596e-07, No Iterations 3
Before T+T solve
BiCG:  Solving for T+T, Initial residual = 0.00056878, Final residual = 3.31334e-07, No Iterations 5
Tres = -7.47939
TsRes = -0.00837722
ExecutionTime = 634.09 s



Wall heat fluxes [W]
cabHeatTransmissiveWall -3.80562 2.7546e-15 0 -3.80562
bayHeatTransmissiveWall 3.80745 -1.26002e-14 0 3.80745
walls 0 0 0 0
topExtWall 18.1183 -2.13165e-12 0 18.1183
toSolidR 0.193203 -1.52883e-13 0 0.193203
cabInlet 0.01595 -2358.34 0 -2358.32
toSolidL 0.168495 1.66973e-13 0 0.168495
passengers -58.8769 -1.64463e-12 0 -58.8769
bottomExtWall 32.6708 1.55744e-13 0 32.6708
core2 -38.7111 1.62003e-12 0 -38.7111
core1 -48.3867 1.68462e-12 0 -48.3867
bayInletL 0.00478111 -2431.67 0 -2431.66
bayInletR 0.00861429 -2431.67 0 -2431.66
cabOutletL 0 1207.18 0 1207.18
cabOutletR 0 1189.88 0 1189.88
bayOutletL 0.0426037 2668.93 0 2668.98
bayOutletR 0.0521235 2243.03 0 2243.08
defaultFaces 0 0 0 0
sum -94.698 87.3465 0 -7.35155


Wall heat fluxes [W]
topExtWall 0.227322 0 0 0.227322
toFluidR -0.110699 0 0 -0.110699
toFluidL -0.112381 0 0 -0.112381
defaultFaces 0 0 0 0
sum 0.00424147 0 0 0.00424147

Time = 1997

DILUPBiCG:  Solving for Ux, Initial residual = 0.000366516, Final residual = 6.91382e-08, No Iterations 2
DILUPBiCG:  Solving for Uy, Initial residual = 0.000286007, Final residual = 7.33515e-08, No Iterations 2
DICPCG:  Solving for p_rgh, Initial residual = 0.0348856, Final residual = 3.34986e-05, No Iterations 55
time step continuity errors : sum local = 3.37364e-05, global = 1.57905e-06, cumulative = 7.14358e-06
DILUPBiCG:  Solving for omega, Initial residual = 0.000196311, Final residual = 2.35769e-07, No Iterations 3
DILUPBiCG:  Solving for k, Initial residual = 0.000323298, Final residual = 2.53409e-07, No Iterations 4
Before T+T solve
BiCG:  Solving for T+T, Initial residual = 0.00056931, Final residual = 3.3568e-07, No Iterations 5
Tres = -7.67321
TsRes = -0.00943738
ExecutionTime = 634.36 s



Wall heat fluxes [W]
cabHeatTransmissiveWall -3.80509 4.69162e-15 0 -3.80509
bayHeatTransmissiveWall 3.807 -2.2382e-15 0 3.807
walls 0 0 0 0
topExtWall 18.1533 2.03308e-12 0 18.1533
toSolidR 0.202918 -1.79638e-13 0 0.202918
cabInlet 0.0158142 -2358.34 0 -2358.32
toSolidL 0.178629 1.29936e-14 0 0.178629
passengers -58.8911 -6.54862e-13 0 -58.8911
bottomExtWall 32.6711 1.67029e-13 0 32.6711
core2 -38.714 -4.84619e-13 0 -38.714
core1 -48.3838 1.0171e-12 0 -48.3838
bayInletL 0.00478082 -2431.67 0 -2431.66
bayInletR 0.00861049 -2431.67 0 -2431.66
cabOutletL 0 1207.35 0 1207.35
cabOutletR 0 1189.4 0 1189.4
bayOutletL 0.0427342 2669.17 0 2669.21
bayOutletR 0.0521236 2242.88 0 2242.94
defaultFaces 0 0 0 0
sum -94.6571 87.1295 0 -7.52755


Wall heat fluxes [W]
topExtWall 0.228357 0 0 0.228357
toFluidR -0.11087 0 0 -0.11087
toFluidL -0.112586 0 0 -0.112586
defaultFaces 0 0 0 0
sum 0.00490073 0 0 0.00490073

Time = 1998

DILUPBiCG:  Solving for Ux, Initial residual = 0.000351566, Final residual = 7.01971e-08, No Iterations 2
DILUPBiCG:  Solving for Uy, Initial residual = 0.000276572, Final residual = 7.91515e-08, No Iterations 2
DICPCG:  Solving for p_rgh, Initial residual = 0.0305557, Final residual = 2.99739e-05, No Iterations 129
time step continuity errors : sum local = 2.95704e-05, global = 4.17246e-09, cumulative = 7.14775e-06
DILUPBiCG:  Solving for omega, Initial residual = 0.000190825, Final residual = 1.06369e-07, No Iterations 4
DILUPBiCG:  Solving for k, Initial residual = 0.000323746, Final residual = 2.8042e-06, No Iterations 3
Before T+T solve
BiCG:  Solving for T+T, Initial residual = 0.000567287, Final residual = 3.52564e-07, No Iterations 5
Tres = -8.18035
TsRes = -0.0106228
ExecutionTime = 634.67 s



Wall heat fluxes [W]
cabHeatTransmissiveWall -3.80456 -1.17388e-15 0 -3.80456
bayHeatTransmissiveWall 3.80652 -5.26029e-15 0 3.80652
walls 0 0 0 0
topExtWall 18.1912 9.02465e-13 0 18.1912
toSolidR 0.208947 -4.16413e-14 0 0.208947
cabInlet 0.0157317 -2358.34 0 -2358.32
toSolidL 0.164557 5.02757e-15 0 0.164557
passengers -58.8608 4.37044e-13 0 -58.8608
bottomExtWall 32.6714 -1.18752e-13 0 32.6714
core2 -38.7149 2.02382e-13 0 -38.7149
core1 -48.3865 2.60247e-12 0 -48.3865
bayInletL 0.00477983 -2431.67 0 -2431.66
bayInletR 0.00860333 -2431.67 0 -2431.66
cabOutletL 0 1207.48 0 1207.48
cabOutletR 0 1188.59 0 1188.59
bayOutletL 0.042865 2669.37 0 2669.42
bayOutletR 0.0521274 2242.78 0 2242.83
defaultFaces 0 0 0 0
sum -94.6 86.5562 0 -8.04385


Wall heat fluxes [W]
topExtWall 0.228339 0 0 0.228339
toFluidR -0.111415 0 0 -0.111415
toFluidL -0.1141 0 0 -0.1141
defaultFaces 0 0 0 0
sum 0.00282497 0 0 0.00282497

Time = 1999

DILUPBiCG:  Solving for Ux, Initial residual = 0.000350782, Final residual = 1.50143e-07, No Iterations 2
DILUPBiCG:  Solving for Uy, Initial residual = 0.000277799, Final residual = 9.49457e-08, No Iterations 2
DICPCG:  Solving for p_rgh, Initial residual = 0.032672, Final residual = 3.21732e-05, No Iterations 68
time step continuity errors : sum local = 3.23248e-05, global = 9.42265e-07, cumulative = 8.09002e-06
DILUPBiCG:  Solving for omega, Initial residual = 0.00019134, Final residual = 3.81262e-08, No Iterations 4
DILUPBiCG:  Solving for k, Initial residual = 0.000324174, Final residual = 1.11629e-06, No Iterations 3
Before T+T solve
BiCG:  Solving for T+T, Initial residual = 0.000564909, Final residual = 3.30836e-07, No Iterations 5
Tres = -7.96813
TsRes = -0.0101242
ExecutionTime = 634.94 s



Wall heat fluxes [W]
cabHeatTransmissiveWall -3.80401 3.11289e-15 0 -3.80401
bayHeatTransmissiveWall 3.80604 5.13545e-15 0 3.80604
walls 0 0 0 0
topExtWall 18.2213 4.01636e-14 0 18.2213
toSolidR 0.203183 1.20714e-13 0 0.203183
cabInlet 0.0157035 -2358.34 0 -2358.32
toSolidL 0.168604 3.15219e-14 0 0.168604
passengers -58.8643 5.74655e-14 0 -58.8643
bottomExtWall 32.6716 1.29242e-13 0 32.6716
core2 -38.7139 -4.66714e-15 0 -38.7139
core1 -48.385 3.69867e-12 0 -48.385
bayInletL 0.00477901 -2431.67 0 -2431.66
bayInletR 0.0085956 -2431.67 0 -2431.66
cabOutletL 0 1207.76 0 1207.76
cabOutletR 0 1188.43 0 1188.43
bayOutletL 0.0429936 2669.57 0 2669.62
bayOutletR 0.0521307 2242.64 0 2242.7
defaultFaces 0 0 0 0
sum -94.5722 86.7386 0 -7.83368


Wall heat fluxes [W]
topExtWall 0.229247 0 0 0.229247
toFluidR -0.112341 0 0 -0.112341
toFluidL -0.113812 0 0 -0.113812
defaultFaces 0 0 0 0
sum 0.00309444 0 0 0.00309444

Time = 2000

DILUPBiCG:  Solving for Ux, Initial residual = 0.000348618, Final residual = 1.14744e-07, No Iterations 2
DILUPBiCG:  Solving for Uy, Initial residual = 0.000280287, Final residual = 4.93919e-08, No Iterations 2
DICPCG:  Solving for p_rgh, Initial residual = 0.036703, Final residual = 3.53408e-05, No Iterations 64
time step continuity errors : sum local = 3.49762e-05, global = 3.55208e-07, cumulative = 8.44523e-06
DILUPBiCG:  Solving for omega, Initial residual = 0.000204829, Final residual = 1.11689e-06, No Iterations 3
DILUPBiCG:  Solving for k, Initial residual = 0.000324578, Final residual = 2.10392e-06, No Iterations 3
Before T+T solve
BiCG:  Solving for T+T, Initial residual = 0.000561053, Final residual = 3.82637e-07, No Iterations 5
Tres = -8.23664
TsRes = -0.0101371
ExecutionTime = 635.46 s



Wall heat fluxes [W]
cabHeatTransmissiveWall -3.80345 2.1618e-15 0 -3.80345
bayHeatTransmissiveWall 3.80556 -6.19648e-15 0 3.80556
walls 0 0 0 0
topExtWall 18.2237 -9.67511e-13 0 18.2237
toSolidR 0.191211 1.65035e-13 0 0.191211
cabInlet 0.0156985 -2358.34 0 -2358.32
toSolidL 0.178471 6.916e-14 0 0.178471
passengers -58.8577 -9.72126e-13 0 -58.8577
bottomExtWall 32.6719 -5.98306e-14 0 32.6719
core2 -38.712 1.44118e-12 0 -38.712
core1 -48.3817 -3.79637e-12 0 -48.3817
bayInletL 0.00477827 -2431.67 0 -2431.66
bayInletR 0.00858849 -2431.67 0 -2431.66
cabOutletL 0 1207.91 0 1207.91
cabOutletR 0 1188.04 0 1188.04
bayOutletL 0.0431221 2669.79 0 2669.83
bayOutletR 0.0521304 2242.38 0 2242.43
defaultFaces 0 0 0 0
sum -94.5596 86.455 0 -8.10458


Wall heat fluxes [W]
topExtWall 0.229589 0 0 0.229589
toFluidR -0.112683 0 0 -0.112683
toFluidL -0.113014 0 0 -0.113014
defaultFaces 0 0 0 0
sum 0.00389159 0 0 0.00389159

End

