/*---------------------------------------------------------------------------*\
| =========                 |                                                 |
| \\      /  F ield         | OpenFOAM Extend Project: Open source CFD        |
|  \\    /   O peration     | Version:  1.6-ext                               |
|   \\  /    A nd           | Web:      www.extend-project.de                 |
|    \\/     M anipulation  |                                                 |
\*---------------------------------------------------------------------------*/
Build  : 1.6-ext-daa8fb2a98e6
Exec   : chipAirCoolingSimpleFoam
Date   : Nov 29 2011
Time   : 22:17:08
Host   : ubuntu
PID    : 1306
Case   : /home/user/ChipAirCoolingClient/run/cabin_withRadiation
nProcs : 1
SigFpe : Enabling floating point exception trapping (FOAM_SIGFPE).

// * * * * * * * * * * * * * * * * * * * * * * * * * * * * * * * * * * * * * //
Create time

Create mesh for time = 0


Reading g
Reading transportProperties

Calculating field g.h

Reading field p_rgh

Reading field U

Reading field T

Reading/calculating face flux field phi

Selecting incompressible transport model Newtonian
Selecting RAS turbulence model kOmegaSST
kOmegaSSTCoeffs
{
    alphaK1         0.85034;
    alphaK2         1;
    alphaOmega1     0.5;
    alphaOmega2     0.85616;
    gamma1          0.5532;
    gamma2          0.4403;
    beta1           0.075;
    beta2           0.0828;
    betaStar        0.09;
    a1              0.31;
    c1              10;
}

Reading field kappaEff

Creating radiation model

Selecting radiationModel P1
Selecting absorptionEmissionModel constantAbsorptionEmission
Selecting scatterModel constantScatter
Reading field Tsolid

Reading solid thermal properties
Selecting thermal model multiMaterialZones
Selecting thermal model constant
Selecting thermal model constant
Reading solid diffusivity k


Starting time loop

Time = 1

DILUPBiCG:  Solving for Ux, Initial residual = 1, Final residual = 0.000397896, No Iterations 1
DILUPBiCG:  Solving for Uy, Initial residual = 1, Final residual = 0.000908996, No Iterations 1
DICPCG:  Solving for p_rgh, Initial residual = 1, Final residual = 0.000993731, No Iterations 492
DICPCG:  Solving for p_rgh, Initial residual = 0.0423114, Final residual = 4.23035e-05, No Iterations 275
time step continuity errors : sum local = 0.000182621, global = 1.00171e-05, cumulative = 1.00171e-05
DILUPBiCG:  Solving for omega, Initial residual = 0.131598, Final residual = 0.000255562, No Iterations 2
DILUPBiCG:  Solving for k, Initial residual = 1, Final residual = 0.00654307, No Iterations 1
DICPCG:  Solving for G, Initial residual = 1, Final residual = 0.0971528, No Iterations 166
Before T+T solve
smoothSolver:  Solving for T+T, Initial residual = 0.000100584, Final residual = 8.25681e-08, No Iterations 4
Tres = -49.9681
TsRes = 0.220321
ExecutionTime = 1.35 s



Wall heat fluxes [W]
cabHeatTransmissiveWall -5.75495 0 8.22786 2.47292
bayHeatTransmissiveWall 2.54026 0 -3.47402 -0.933762
walls 4.64733 -4.39661e-15 -9.61371 -4.96638
topExtWall 23.5051 -2.07453e-14 -22.3591 1.14605
toSolidR -0.892169 0 3.70538 2.81321
cabInlet -1.17585e-06 -2358.34 0.290246 -2358.05
toSolidL -0.92202 0 3.75559 2.83357
passengers -50.6765 0 32.3477 -18.3288
bottomExtWall 47.9167 0 -5.88585 42.0309
core2 -33.5225 0 -2.97576 -36.4982
core1 -42.1201 0 -2.58502 -44.7051
bayInletL -2.16632e-05 -2431.67 -0.238768 -2431.9
bayInletR -1.60619e-05 -2431.67 -0.146305 -2431.81
cabOutletL 0 1155.64 0.335801 1155.97
cabOutletR 0 1204.92 0.338079 1205.26
bayOutletL 0 2372.07 -0.12251 2371.95
bayOutletR 0 2491.88 -0.114639 2491.77
defaultFaces 0 0 0 0
sum -55.2788 2.84592 1.48502 -50.9478


Wall heat fluxes [W]
topExtWall 0.131685 0 0 0.131685
toFluidR -0.361684 0 0 -0.361684
toFluidL -0.360488 0 0 -0.360488
defaultFaces 0 0 0 0
sum -0.590487 0 0 -0.590487

Time = 2

DILUPBiCG:  Solving for Ux, Initial residual = 0.650344, Final residual = 0.000265829, No Iterations 2
DILUPBiCG:  Solving for Uy, Initial residual = 0.78684, Final residual = 0.000266632, No Iterations 2
DICPCG:  Solving for p_rgh, Initial residual = 0.140565, Final residual = 0.000139731, No Iterations 427
DICPCG:  Solving for p_rgh, Initial residual = 0.213927, Final residual = 0.000212745, No Iterations 252
time step continuity errors : sum local = 0.00135131, global = 1.43042e-05, cumulative = 2.43213e-05
DILUPBiCG:  Solving for omega, Initial residual = 0.0147818, Final residual = 0.000102812, No Iterations 2
DILUPBiCG:  Solving for k, Initial residual = 0.662794, Final residual = 0.00297616, No Iterations 2
DICPCG:  Solving for G, Initial residual = 0.575417, Final residual = 0.0534271, No Iterations 126
Before T+T solve
smoothSolver:  Solving for T+T, Initial residual = 0.00010594, Final residual = 9.11829e-08, No Iterations 4
Tres = -81.5781
TsRes = 0.698735
ExecutionTime = 2.23 s



Wall heat fluxes [W]
cabHeatTransmissiveWall -4.30668 -7.54676e-15 -10.1543 -14.461
bayHeatTransmissiveWall 3.91856 3.98771e-15 6.72904 10.6476
walls -0.243513 1.22917e-14 0.776244 0.532731
topExtWall 14.0509 -1.25857e-13 7.43734 21.4883
toSolidR -0.492832 -5.55651e-14 -1.1607 -1.65353
cabInlet -1.6963e-07 -2358.34 0.111083 -2358.22
toSolidL -0.501116 -5.55592e-14 -1.18994 -1.69106
passengers -51.5643 -4.35591e-14 4.06827 -47.4961
bottomExtWall 35.8249 -8.03865e-14 10.2671 46.092
core2 -34.5682 1.26436e-13 -7.926 -42.4942
core1 -43.7762 -4.3775e-14 -9.72544 -53.5016
bayInletL -0.00016948 -2431.67 -0.0655705 -2431.73
bayInletR -6.25193e-05 -2431.67 -0.0294617 -2431.7
cabOutletL 0 1174.17 0.0810375 1174.25
cabOutletR 0 1187.7 0.0883691 1187.78
bayOutletL 0 2436.6 0.00677719 2436.61
bayOutletR 0 2427.37 0.0105627 2427.38
defaultFaces 0 0 0 0
sum -81.6587 4.17265 -0.675572 -78.1616


Wall heat fluxes [W]
topExtWall 0.737977 0 0 0.737977
toFluidR -0.159217 0 0 -0.159217
toFluidL -0.157929 0 0 -0.157929
defaultFaces 0 0 0 0
sum 0.42083 0 0 0.42083

Time = 3

DILUPBiCG:  Solving for Ux, Initial residual = 0.106599, Final residual = 4.42615e-05, No Iterations 2
DILUPBiCG:  Solving for Uy, Initial residual = 0.0862883, Final residual = 2.99432e-05, No Iterations 2
DICPCG:  Solving for p_rgh, Initial residual = 0.38989, Final residual = 0.000373267, No Iterations 407
DICPCG:  Solving for p_rgh, Initial residual = 0.101114, Final residual = 0.000100343, No Iterations 238
time step continuity errors : sum local = 0.000625333, global = 1.05764e-05, cumulative = 3.48977e-05
DILUPBiCG:  Solving for omega, Initial residual = 0.0102544, Final residual = 5.85195e-05, No Iterations 2
DILUPBiCG:  Solving for k, Initial residual = 0.239897, Final residual = 0.00104913, No Iterations 2
DICPCG:  Solving for G, Initial residual = 0.336199, Final residual = 0.033018, No Iterations 115
Before T+T solve
smoothSolver:  Solving for T+T, Initial residual = 9.44881e-05, Final residual = 7.77491e-08, No Iterations 4
Tres = -93.3796
TsRes = 1.0916
ExecutionTime = 3.06 s



Wall heat fluxes [W]
cabHeatTransmissiveWall -5.18937 9.87273e-16 -2.82785 -8.01722
bayHeatTransmissiveWall 1.83329 -3.02541e-16 9.33685 11.1701
walls -1.44469 -1.64184e-14 1.62444 0.179756
topExtWall 14.5088 -8.83545e-14 7.59358 22.1024
toSolidR -0.32605 2.10097e-18 0.153615 -0.172435
cabInlet 2.682e-06 -2358.34 0.080125 -2358.26
toSolidL -0.341321 -3.23953e-14 0.183808 -0.157513
passengers -55.637 -1.35996e-13 -5.67766 -61.3146
bottomExtWall 31.8992 1.002e-13 16.2567 48.156
core2 -36.328 7.75417e-14 -11.875 -48.203
core1 -45.671 1.20946e-13 -15.6264 -61.2974
bayInletL -0.000306224 -2431.67 0.0461908 -2431.62
bayInletR -0.000230302 -2431.67 0.0754895 -2431.59
cabOutletL 0 1200.16 0.05857 1200.22
cabOutletR 0 1159.5 0.0548809 1159.55
bayOutletL 0 2503.3 0.0768598 2503.37
bayOutletR 0 2361.84 0.0792049 2361.92
defaultFaces 0 0 0 0
sum -96.6966 3.12255 -0.386578 -93.9606


Wall heat fluxes [W]
topExtWall 1.11968 0 0 1.11968
toFluidR -0.0882279 0 0 -0.0882279
toFluidL -0.0867978 0 0 -0.0867978
defaultFaces 0 0 0 0
sum 0.944656 0 0 0.944656

Time = 4

DILUPBiCG:  Solving for Ux, Initial residual = 0.217829, Final residual = 9.33544e-05, No Iterations 2
DILUPBiCG:  Solving for Uy, Initial residual = 0.136682, Final residual = 5.48904e-05, No Iterations 2
DICPCG:  Solving for p_rgh, Initial residual = 0.170251, Final residual = 0.000163179, No Iterations 404
DICPCG:  Solving for p_rgh, Initial residual = 0.0420273, Final residual = 4.16256e-05, No Iterations 248
time step continuity errors : sum local = 0.000100806, global = -1.89928e-06, cumulative = 3.29984e-05
DILUPBiCG:  Solving for omega, Initial residual = 0.00639087, Final residual = 3.73454e-05, No Iterations 2
DILUPBiCG:  Solving for k, Initial residual = 0.0713502, Final residual = 0.000330651, No Iterations 2
DICPCG:  Solving for G, Initial residual = 0.125852, Final residual = 0.0123357, No Iterations 124
Before T+T solve
smoothSolver:  Solving for T+T, Initial residual = 8.27931e-05, Final residual = 7.47263e-08, No Iterations 4
Tres = -98.8586
TsRes = 1.30066
ExecutionTime = 3.93 s



Wall heat fluxes [W]
cabHeatTransmissiveWall -4.2269 -4.73774e-15 -5.35555 -9.58245
bayHeatTransmissiveWall 2.07399 -4.81452e-15 6.69878 8.77278
walls -2.28814 -3.11765e-14 2.44811 0.159978
topExtWall 14.0671 -7.63285e-14 7.57614 21.6433
toSolidR -0.320724 5.7783e-15 0.436951 0.116228
cabInlet 8.27365e-06 -2358.34 0.0890136 -2358.25
toSolidL -0.335226 -1.38823e-14 0.434667 0.0994412
passengers -55.3655 -7.41457e-14 -3.94785 -59.3134
bottomExtWall 30.7756 1.66794e-14 16.524 47.2995
core2 -36.6585 8.21729e-16 -11.4357 -48.0942
core1 -45.9936 1.33228e-13 -14.209 -60.2026
bayInletL -0.000413758 -2431.67 0.0938874 -2431.57
bayInletR -0.00027839 -2431.67 0.127092 -2431.54
cabOutletL 0 1213.09 0.0702466 1213.16
cabOutletR 0 1145.25 0.0709347 1145.32
bayOutletL 0 2519.68 0.0880679 2519.77
bayOutletR 0 2343.01 0.0900078 2343.1
defaultFaces 0 0 0 0
sum -98.2726 -0.635956 -0.200238 -99.1088


Wall heat fluxes [W]
topExtWall 1.33261 0 0 1.33261
toFluidR -0.0598007 0 0 -0.0598007
toFluidL -0.0569169 0 0 -0.0569169
defaultFaces 0 0 0 0
sum 1.21589 0 0 1.21589

Time = 5

DILUPBiCG:  Solving for Ux, Initial residual = 0.174666, Final residual = 7.61989e-05, No Iterations 2
DILUPBiCG:  Solving for Uy, Initial residual = 0.18395, Final residual = 7.00865e-05, No Iterations 2
DICPCG:  Solving for p_rgh, Initial residual = 0.177591, Final residual = 0.000177433, No Iterations 445
DICPCG:  Solving for p_rgh, Initial residual = 0.12383, Final residual = 0.000123821, No Iterations 224
time step continuity errors : sum local = 0.000236874, global = 3.93411e-07, cumulative = 3.33918e-05
DILUPBiCG:  Solving for omega, Initial residual = 0.00517505, Final residual = 3.28711e-05, No Iterations 2
DILUPBiCG:  Solving for k, Initial residual = 0.0334639, Final residual = 0.000157877, No Iterations 2
DICPCG:  Solving for G, Initial residual = 0.0611028, Final residual = 0.00587771, No Iterations 103
Before T+T solve
smoothSolver:  Solving for T+T, Initial residual = 7.98526e-05, Final residual = 7.29457e-08, No Iterations 4
Tres = -100.749
TsRes = 1.39853
ExecutionTime = 4.78 s



Wall heat fluxes [W]
cabHeatTransmissiveWall -4.31114 -1.78345e-15 -4.84225 -9.15339
bayHeatTransmissiveWall 1.7674 1.62535e-15 8.0664 9.83379
walls -2.16953 -1.6835e-14 2.17824 0.00871102
topExtWall 13.5121 4.03223e-15 8.08322 21.5953
toSolidR -0.337327 7.0582e-14 0.384627 0.0473
cabInlet 1.13643e-05 -2358.34 0.094838 -2358.24
toSolidL -0.350364 -2.32214e-15 0.399554 0.0491897
passengers -55.9014 6.12402e-15 -4.86413 -60.7656
bottomExtWall 30.1241 -9.3278e-14 17.1089 47.233
core2 -36.9141 2.83661e-13 -12.3619 -49.2761
core1 -46.2351 -9.66017e-15 -14.908 -61.1432
bayInletL -0.000292824 -2431.67 0.0980753 -2431.57
bayInletR -0.000194561 -2431.67 0.129978 -2431.54
cabOutletL 0 1209.84 0.0701711 1209.91
cabOutletR 0 1149.28 0.0709722 1149.35
bayOutletL 0 2461.63 0.0936987 2461.73
bayOutletR 0 2400.98 0.0943189 2401.07
defaultFaces 0 0 0 0
sum -100.816 0.0550262 -0.103351 -100.864


Wall heat fluxes [W]
topExtWall 1.42849 0 0 1.42849
toFluidR -0.0423782 0 0 -0.0423782
toFluidL -0.0395642 0 0 -0.0395642
defaultFaces 0 0 0 0
sum 1.34654 0 0 1.34654

Time = 6

DILUPBiCG:  Solving for Ux, Initial residual = 0.0334005, Final residual = 1.70146e-05, No Iterations 2
DILUPBiCG:  Solving for Uy, Initial residual = 0.0323072, Final residual = 1.50538e-05, No Iterations 2
DICPCG:  Solving for p_rgh, Initial residual = 0.365403, Final residual = 0.000347638, No Iterations 405
DICPCG:  Solving for p_rgh, Initial residual = 0.0543786, Final residual = 5.22125e-05, No Iterations 242
time step continuity errors : sum local = 6.55095e-05, global = -3.10048e-07, cumulative = 3.30818e-05
DILUPBiCG:  Solving for omega, Initial residual = 0.00441187, Final residual = 2.6687e-05, No Iterations 2
DILUPBiCG:  Solving for k, Initial residual = 0.0223307, Final residual = 0.000105001, No Iterations 2
DICPCG:  Solving for G, Initial residual = 0.0368855, Final residual = 0.00343214, No Iterations 123
Before T+T solve
smoothSolver:  Solving for T+T, Initial residual = 7.77276e-05, Final residual = 7.3403e-08, No Iterations 4
Tres = -104.668
TsRes = 1.41807
ExecutionTime = 5.63 s



Wall heat fluxes [W]
cabHeatTransmissiveWall -4.42605 4.30104e-15 -5.02648 -9.45254
bayHeatTransmissiveWall 1.72796 -3.69156e-16 7.8063 9.53426
walls -2.76583 -1.88189e-15 2.91887 0.15304
topExtWall 12.8621 8.58734e-14 8.7069 21.569
toSolidR -0.378796 -1.96777e-14 0.447741 0.0689444
cabInlet 1.28575e-05 -2358.34 0.104441 -2358.23
toSolidL -0.391746 -2.5461e-14 0.459719 0.0679726
passengers -56.2877 -1.63399e-14 -5.40852 -61.6962
bottomExtWall 28.7644 2.52812e-13 18.5579 47.3222
core2 -37.1558 2.78407e-13 -13.355 -50.5108
core1 -46.5108 -1.06776e-13 -15.8544 -62.3652
bayInletL -0.000191937 -2431.67 0.129572 -2431.54
bayInletR -0.000115277 -2431.67 0.164779 -2431.5
cabOutletL 0 1205.64 0.077583 1205.71
cabOutletR 0 1153.79 0.0792254 1153.87
bayOutletL 0 2451.7 0.109959 2451.81
bayOutletR 0 2410.36 0.109753 2410.47
defaultFaces 0 0 0 0
sum -104.563 -0.179386 0.028232 -104.714


Wall heat fluxes [W]
topExtWall 1.44883 0 0 1.44883
toFluidR -0.033771 0 0 -0.033771
toFluidL -0.031435 0 0 -0.031435
defaultFaces 0 0 0 0
sum 1.38363 0 0 1.38363

Time = 7

DILUPBiCG:  Solving for Ux, Initial residual = 0.0496465, Final residual = 2.12855e-05, No Iterations 2
DILUPBiCG:  Solving for Uy, Initial residual = 0.0582947, Final residual = 2.10191e-05, No Iterations 2
DICPCG:  Solving for p_rgh, Initial residual = 0.19239, Final residual = 0.000187488, No Iterations 427
DICPCG:  Solving for p_rgh, Initial residual = 0.137823, Final residual = 0.000136526, No Iterations 234
time step continuity errors : sum local = 5.04963e-05, global = 1.90457e-06, cumulative = 3.49863e-05
DILUPBiCG:  Solving for omega, Initial residual = 0.00380759, Final residual = 2.80486e-05, No Iterations 2
DILUPBiCG:  Solving for k, Initial residual = 0.0156727, Final residual = 7.1043e-05, No Iterations 2
DICPCG:  Solving for G, Initial residual = 0.0277037, Final residual = 0.00264767, No Iterations 130
Before T+T solve
smoothSolver:  Solving for T+T, Initial residual = 7.66624e-05, Final residual = 7.46064e-08, No Iterations 4
Tres = -106.952
TsRes = 1.39018
ExecutionTime = 6.49 s



Wall heat fluxes [W]
cabHeatTransmissiveWall -4.61505 2.87216e-16 -4.79996 -9.41501
bayHeatTransmissiveWall 1.57226 2.7416e-15 8.24739 9.81965
walls -3.13859 -9.8485e-16 3.25872 0.120137
topExtWall 12.3831 -8.88124e-14 9.19585 21.579
toSolidR -0.412823 -9.95573e-14 0.464589 0.051766
cabInlet 1.34862e-05 -2358.34 0.111949 -2358.22
toSolidL -0.425349 -5.55792e-14 0.479891 0.0545414
passengers -56.5669 4.48962e-14 -6.23745 -62.8044
bottomExtWall 27.6768 -1.02396e-13 19.6503 47.327
core2 -37.3226 3.44029e-14 -14.2316 -51.5542
core1 -46.6877 1.13715e-13 -16.9147 -63.6024
bayInletL -0.000105764 -2431.67 0.158315 -2431.51
bayInletR -5.05661e-05 -2431.67 0.195452 -2431.47
cabOutletL 0 1204.92 0.081992 1205
cabOutletR 0 1154 0.0827209 1154.08
bayOutletL 0 2437.83 0.126789 2437.96
bayOutletR 0 2425.41 0.126346 2425.54
defaultFaces 0 0 0 0
sum -107.537 0.491651 -0.0033878 -107.049


Wall heat fluxes [W]
topExtWall 1.42386 0 0 1.42386
toFluidR -0.0299091 0 0 -0.0299091
toFluidL -0.0280598 0 0 -0.0280598
defaultFaces 0 0 0 0
sum 1.36589 0 0 1.36589

Time = 8

DILUPBiCG:  Solving for Ux, Initial residual = 0.0162298, Final residual = 7.79274e-06, No Iterations 2
DILUPBiCG:  Solving for Uy, Initial residual = 0.0175269, Final residual = 8.37379e-06, No Iterations 2
DICPCG:  Solving for p_rgh, Initial residual = 0.216273, Final residual = 0.000214488, No Iterations 423
DICPCG:  Solving for p_rgh, Initial residual = 0.0773303, Final residual = 7.41563e-05, No Iterations 238
time step continuity errors : sum local = 3.74449e-05, global = -8.36715e-07, cumulative = 3.41496e-05
DILUPBiCG:  Solving for omega, Initial residual = 0.00331874, Final residual = 2.0166e-06, No Iterations 3
DILUPBiCG:  Solving for k, Initial residual = 0.0124237, Final residual = 5.46767e-05, No Iterations 2
DICPCG:  Solving for G, Initial residual = 0.0237023, Final residual = 0.00230587, No Iterations 130
Before T+T solve
smoothSolver:  Solving for T+T, Initial residual = 7.60089e-05, Final residual = 7.54122e-08, No Iterations 4
Tres = -110.411
TsRes = 1.33587
ExecutionTime = 7.4 s



Wall heat fluxes [W]
cabHeatTransmissiveWall -4.67817 -2.99109e-15 -4.7669 -9.44508
bayHeatTransmissiveWall 1.45131 -4.14916e-15 8.27827 9.72958
walls -3.58724 -2.18736e-14 3.72774 0.140495
topExtWall 11.9531 1.37178e-13 9.63117 21.5843
toSolidR -0.434479 1.6251e-14 0.504582 0.0701027
cabInlet 1.40523e-05 -2358.34 0.119014 -2358.22
toSolidL -0.447539 -1.15739e-14 0.515578 0.0680394
passengers -56.8154 1.00798e-13 -6.83372 -63.6492
bottomExtWall 26.645 2.25775e-14 20.7395 47.3845
core2 -37.4401 -2.64897e-13 -14.9391 -52.3792
core1 -46.8164 -2.55237e-13 -17.8459 -64.6623
bayInletL -4.58145e-05 -2431.67 0.188319 -2431.48
bayInletR -1.45687e-05 -2431.67 0.227883 -2431.44
cabOutletL 0 1204.49 0.0883652 1204.58
cabOutletR 0 1153.51 0.089379 1153.6
bayOutletL 0 2424.73 0.143816 2424.87
bayOutletR 0 2438.58 0.143522 2438.73
defaultFaces 0 0 0 0
sum -110.17 -0.349776 0.0115812 -110.508


Wall heat fluxes [W]
topExtWall 1.37415 0 0 1.37415
toFluidR -0.029768 0 0 -0.029768
toFluidL -0.0284775 0 0 -0.0284775
defaultFaces 0 0 0 0
sum 1.31591 0 0 1.31591

Time = 9

DILUPBiCG:  Solving for Ux, Initial residual = 0.0123354, Final residual = 8.43504e-06, No Iterations 2
DILUPBiCG:  Solving for Uy, Initial residual = 0.0115004, Final residual = 4.97358e-06, No Iterations 2
DICPCG:  Solving for p_rgh, Initial residual = 0.159258, Final residual = 0.000158497, No Iterations 412
DICPCG:  Solving for p_rgh, Initial residual = 0.0395536, Final residual = 3.94769e-05, No Iterations 224
time step continuity errors : sum local = 1.22135e-05, global = 1.54912e-08, cumulative = 3.41651e-05
DILUPBiCG:  Solving for omega, Initial residual = 0.0029345, Final residual = 1.87476e-06, No Iterations 3
DILUPBiCG:  Solving for k, Initial residual = 0.0104581, Final residual = 4.56442e-05, No Iterations 2
DICPCG:  Solving for G, Initial residual = 0.0196565, Final residual = 0.00188695, No Iterations 136
Before T+T solve
smoothSolver:  Solving for T+T, Initial residual = 7.55845e-05, Final residual = 1.4939e-08, No Iterations 5
Tres = -112.503
TsRes = 1.2689
ExecutionTime = 8.26 s



Wall heat fluxes [W]
cabHeatTransmissiveWall -4.72417 -1.20298e-14 -4.71608 -9.44026
bayHeatTransmissiveWall 1.31321 1.70786e-15 8.47601 9.78922
walls -3.95937 1.18522e-14 4.09255 0.133187
topExtWall 11.5977 -1.80513e-14 9.99239 21.5901
toSolidR -0.453157 -6.98473e-15 0.529845 0.0766878
cabInlet 1.48139e-05 -2358.34 0.12566 -2358.21
toSolidL -0.466455 6.95111e-15 0.540859 0.0744043
passengers -57.0412 -5.04968e-14 -7.34956 -64.3907
bottomExtWall 25.7692 8.14508e-14 21.6345 47.4036
core2 -37.5529 1.90214e-13 -15.6292 -53.1821
core1 -46.9729 -2.41001e-13 -18.6647 -65.6376
bayInletL -9.16174e-06 -2431.67 0.215979 -2431.45
bayInletR 1.00147e-05 -2431.67 0.257406 -2431.41
cabOutletL 0 1204.68 0.0939941 1204.78
cabOutletR 0 1154.06 0.0953842 1154.15
bayOutletL 0 2413.95 0.160018 2414.11
bayOutletR 0 2448.83 0.159452 2448.99
defaultFaces 0 0 0 0
sum -112.49 -0.148794 0.0144657 -112.624


Wall heat fluxes [W]
topExtWall 1.31303 0 0 1.31303
toFluidR -0.0314973 0 0 -0.0314973
toFluidL -0.0307869 0 0 -0.0307869
defaultFaces 0 0 0 0
sum 1.25074 0 0 1.25074

Time = 10

DILUPBiCG:  Solving for Ux, Initial residual = 0.00918755, Final residual = 7.16438e-06, No Iterations 2
DILUPBiCG:  Solving for Uy, Initial residual = 0.00888952, Final residual = 6.03455e-06, No Iterations 2
DICPCG:  Solving for p_rgh, Initial residual = 0.129274, Final residual = 0.000129098, No Iterations 431
DICPCG:  Solving for p_rgh, Initial residual = 0.0566108, Final residual = 5.61658e-05, No Iterations 231
time step continuity errors : sum local = 1.95113e-05, global = 2.00949e-07, cumulative = 3.43661e-05
DILUPBiCG:  Solving for omega, Initial residual = 0.00264339, Final residual = 1.88382e-06, No Iterations 3
DILUPBiCG:  Solving for k, Initial residual = 0.00903764, Final residual = 3.84188e-05, No Iterations 2
DICPCG:  Solving for G, Initial residual = 0.0176696, Final residual = 0.00168215, No Iterations 137
Before T+T solve
smoothSolver:  Solving for T+T, Initial residual = 7.54426e-05, Final residual = 1.50599e-08, No Iterations 5
Tres = -114.629
TsRes = 1.19535
ExecutionTime = 9.17 s



Wall heat fluxes [W]
cabHeatTransmissiveWall -4.77983 -9.48383e-15 -4.71757 -9.4974
bayHeatTransmissiveWall 1.20258 -4.37122e-15 8.58379 9.78637
walls -4.32406 -1.64239e-14 4.46725 0.143193
topExtWall 11.2876 2.48756e-13 10.3107 21.5983
toSolidR -0.473928 -1.38984e-13 0.555293 0.0813658
cabInlet 1.55743e-05 -2358.34 0.132217 -2358.2
toSolidL -0.486645 6.71767e-14 0.566922 0.0802763
passengers -57.2253 -5.44172e-14 -7.77055 -64.9958
bottomExtWall 24.949 4.62039e-14 22.4836 47.4326
core2 -37.6563 -3.25515e-13 -16.2804 -53.9367
core1 -47.1119 3.63879e-13 -19.3972 -66.5091
bayInletL 1.02761e-05 -2431.67 0.243116 -2431.42
bayInletR 2.41638e-05 -2431.67 0.286145 -2431.38
cabOutletL 0 1203.97 0.0999053 1204.07
cabOutletR 0 1154.95 0.101857 1155.05
bayOutletL 0 2406.96 0.175998 2407.14
bayOutletR 0 2455.65 0.174994 2455.83
defaultFaces 0 0 0 0
sum -114.619 -0.139387 0.016106 -114.742


Wall heat fluxes [W]
topExtWall 1.24849 0 0 1.24849
toFluidR -0.0338618 0 0 -0.0338618
toFluidL -0.0334658 0 0 -0.0334658
defaultFaces 0 0 0 0
sum 1.18117 0 0 1.18117

Time = 11

DILUPBiCG:  Solving for Ux, Initial residual = 0.00585617, Final residual = 3.39609e-06, No Iterations 2
DILUPBiCG:  Solving for Uy, Initial residual = 0.00505185, Final residual = 2.62744e-06, No Iterations 2
DICPCG:  Solving for p_rgh, Initial residual = 0.0947265, Final residual = 9.30375e-05, No Iterations 384
DICPCG:  Solving for p_rgh, Initial residual = 0.0354315, Final residual = 3.50941e-05, No Iterations 215
time step continuity errors : sum local = 1.17618e-05, global = 7.35135e-09, cumulative = 3.43734e-05
DILUPBiCG:  Solving for omega, Initial residual = 0.00240386, Final residual = 1.83253e-06, No Iterations 3
DILUPBiCG:  Solving for k, Initial residual = 0.00796789, Final residual = 3.31643e-05, No Iterations 2
DICPCG:  Solving for G, Initial residual = 0.0158039, Final residual = 0.00154029, No Iterations 138
Before T+T solve
smoothSolver:  Solving for T+T, Initial residual = 7.52363e-05, Final residual = 1.52022e-08, No Iterations 5
Tres = -116.579
TsRes = 1.12619
ExecutionTime = 9.99 s



Wall heat fluxes [W]
cabHeatTransmissiveWall -4.84808 -2.11128e-16 -4.67933 -9.52742
bayHeatTransmissiveWall 1.09457 1.11374e-15 8.72888 9.82345
walls -4.63344 6.76714e-15 4.77272 0.13928
topExtWall 11.0233 -2.69498e-14 10.5725 21.5958
toSolidR -0.494064 -1.01894e-13 0.577516 0.083452
cabInlet 1.61366e-05 -2358.34 0.13832 -2358.2
toSolidL -0.507293 -3.24256e-14 0.58959 0.0822973
passengers -57.3516 1.88264e-13 -8.16393 -65.5155
bottomExtWall 24.2079 -7.91807e-14 23.2342 47.4421
core2 -37.7436 -2.25021e-13 -16.8818 -54.6254
core1 -47.213 -5.29285e-14 -20.0505 -67.2635
bayInletL 2.15839e-05 -2431.67 0.268508 -2431.4
bayInletR 3.14519e-05 -2431.67 0.31245 -2431.35
cabOutletL 0 1203.27 0.105132 1203.38
cabOutletR 0 1155.45 0.107577 1155.56
bayOutletL 0 2402.12 0.191262 2402.31
bayOutletR 0 2460.59 0.189847 2460.78
defaultFaces 0 0 0 0
sum -116.465 -0.240633 0.01296 -116.693


Wall heat fluxes [W]
topExtWall 1.18502 0 0 1.18502
toFluidR -0.0363616 0 0 -0.0363616
toFluidL -0.0363313 0 0 -0.0363313
defaultFaces 0 0 0 0
sum 1.11232 0 0 1.11232

Time = 12

DILUPBiCG:  Solving for Ux, Initial residual = 0.00571628, Final residual = 2.64066e-06, No Iterations 2
DILUPBiCG:  Solving for Uy, Initial residual = 0.00513138, Final residual = 1.91969e-05, No Iterations 2
DICPCG:  Solving for p_rgh, Initial residual = 0.0690402, Final residual = 6.42138e-05, No Iterations 410
DICPCG:  Solving for p_rgh, Initial residual = 0.0309348, Final residual = 3.07538e-05, No Iterations 168
time step continuity errors : sum local = 9.19926e-06, global = -6.67366e-07, cumulative = 3.3706e-05
DILUPBiCG:  Solving for omega, Initial residual = 0.00220163, Final residual = 1.73194e-06, No Iterations 3
DILUPBiCG:  Solving for k, Initial residual = 0.00716173, Final residual = 2.96374e-05, No Iterations 2
DICPCG:  Solving for G, Initial residual = 0.0147894, Final residual = 0.00146645, No Iterations 143
Before T+T solve
smoothSolver:  Solving for T+T, Initial residual = 7.49759e-05, Final residual = 1.5358e-08, No Iterations 5
Tres = -118.524
TsRes = 1.06197
ExecutionTime = 10.82 s



Wall heat fluxes [W]
cabHeatTransmissiveWall -4.9098 -1.45846e-15 -4.64772 -9.55753
bayHeatTransmissiveWall 0.994428 -4.8201e-15 8.84007 9.8345
walls -4.92087 -4.03506e-15 5.06052 0.139654
topExtWall 10.7794 5.23996e-14 10.8134 21.5928
toSolidR -0.512551 -1.3878e-14 0.599963 0.0874114
cabInlet 2.35715e-05 -2358.34 0.144094 -2358.19
toSolidL -0.526077 -5.09609e-14 0.612529 0.0864519
passengers -57.4515 -1.68049e-14 -8.52821 -65.9797
bottomExtWall 23.5072 1.12246e-13 23.9477 47.4549
core2 -37.8145 1.80193e-13 -17.4414 -55.256
core1 -47.2872 -3.42745e-13 -20.6533 -67.9405
bayInletL 2.88784e-05 -2431.67 0.292787 -2431.37
bayInletR 3.71457e-05 -2431.67 0.337299 -2431.33
cabOutletL 0 1202.6 0.110187 1202.71
cabOutletR 0 1156.06 0.113141 1156.18
bayOutletL 0 2398.4 0.206011 2398.61
bayOutletR 0 2464.1 0.204237 2464.31
defaultFaces 0 0 0 0
sum -118.141 -0.496443 0.0112216 -118.627


Wall heat fluxes [W]
topExtWall 1.1249 0 0 1.1249
toFluidR -0.0389677 0 0 -0.0389677
toFluidL -0.0390787 0 0 -0.0390787
defaultFaces 0 0 0 0
sum 1.04686 0 0 1.04686

Time = 13

DILUPBiCG:  Solving for Ux, Initial residual = 0.00464091, Final residual = 3.81485e-06, No Iterations 2
DILUPBiCG:  Solving for Uy, Initial residual = 0.00406785, Final residual = 1.93692e-06, No Iterations 2
DICPCG:  Solving for p_rgh, Initial residual = 0.0604326, Final residual = 6.01157e-05, No Iterations 390
DICPCG:  Solving for p_rgh, Initial residual = 0.0329748, Final residual = 3.23678e-05, No Iterations 202
time step continuity errors : sum local = 9.49618e-06, global = -4.34088e-07, cumulative = 3.32719e-05
DILUPBiCG:  Solving for omega, Initial residual = 0.00203524, Final residual = 1.71667e-06, No Iterations 3
DILUPBiCG:  Solving for k, Initial residual = 0.00653646, Final residual = 2.75729e-05, No Iterations 2
DICPCG:  Solving for G, Initial residual = 0.0137284, Final residual = 0.00131032, No Iterations 146
Before T+T solve
smoothSolver:  Solving for T+T, Initial residual = 7.47974e-05, Final residual = 1.54983e-08, No Iterations 5
Tres = -120.072
TsRes = 1.0026
ExecutionTime = 11.66 s



Wall heat fluxes [W]
cabHeatTransmissiveWall -4.96476 7.23041e-15 -4.60877 -9.57353
bayHeatTransmissiveWall 0.895829 -6.01178e-15 8.95953 9.85536
walls -5.18216 1.63011e-14 5.32027 0.138111
topExtWall 10.548 6.23464e-14 11.041 21.589
toSolidR -0.52978 -5.09432e-14 0.621482 0.0917017
cabInlet 3.57031e-05 -2358.34 0.149699 -2358.19
toSolidL -0.543063 -9.32462e-15 0.635095 0.0920319
passengers -57.5337 2.62694e-14 -8.88062 -66.4143
bottomExtWall 22.8511 2.13916e-14 24.6167 47.4679
core2 -37.8746 7.27212e-13 -17.9787 -55.8533
core1 -47.3553 2.34467e-13 -21.2146 -68.5698
bayInletL 3.51524e-05 -2431.67 0.315878 -2431.35
bayInletR 4.30475e-05 -2431.67 0.360998 -2431.3
cabOutletL 0 1202.15 0.115051 1202.26
cabOutletR 0 1156.65 0.118489 1156.77
bayOutletL 0 2395.87 0.220155 2396.09
bayOutletR 0 2466.52 0.218014 2466.74
defaultFaces 0 0 0 0
sum -119.688 -0.479411 0.00976858 -120.158


Wall heat fluxes [W]
topExtWall 1.0692 0 0 1.0692
toFluidR -0.0415654 0 0 -0.0415654
toFluidL -0.0416846 0 0 -0.0416846
defaultFaces 0 0 0 0
sum 0.985955 0 0 0.985955

Time = 14

DILUPBiCG:  Solving for Ux, Initial residual = 0.00410001, Final residual = 4.35344e-06, No Iterations 2
DILUPBiCG:  Solving for Uy, Initial residual = 0.00355831, Final residual = 2.38199e-06, No Iterations 2
DICPCG:  Solving for p_rgh, Initial residual = 0.0564854, Final residual = 5.36777e-05, No Iterations 283
DICPCG:  Solving for p_rgh, Initial residual = 0.0260626, Final residual = 2.45752e-05, No Iterations 184
time step continuity errors : sum local = 7.51002e-06, global = -2.68454e-07, cumulative = 3.30035e-05
DILUPBiCG:  Solving for omega, Initial residual = 0.001892, Final residual = 1.88073e-05, No Iterations 2
DILUPBiCG:  Solving for k, Initial residual = 0.00603101, Final residual = 2.63556e-05, No Iterations 2
DICPCG:  Solving for G, Initial residual = 0.0133371, Final residual = 0.00124967, No Iterations 146
Before T+T solve
smoothSolver:  Solving for T+T, Initial residual = 7.47077e-05, Final residual = 1.56215e-08, No Iterations 5
Tres = -121.538
TsRes = 0.948425
ExecutionTime = 12.38 s



Wall heat fluxes [W]
cabHeatTransmissiveWall -5.01613 5.33129e-15 -4.57765 -9.59378
bayHeatTransmissiveWall 0.802619 -2.30224e-15 9.06334 9.86596
walls -5.42923 -1.07944e-13 5.56667 0.137439
topExtWall 10.3256 1.00722e-13 11.2626 21.5882
toSolidR -0.547199 -1.11167e-13 0.643659 0.0964602
cabInlet 4.62176e-05 -2358.34 0.155297 -2358.18
toSolidL -0.560957 7.1858e-14 0.657482 0.0965248
passengers -57.6059 -1.53014e-13 -9.21523 -66.8211
bottomExtWall 22.2295 1.193e-13 25.2551 47.4846
core2 -37.9308 1.11782e-13 -18.4846 -56.4153
core1 -47.4203 1.59968e-13 -21.7483 -69.1686
bayInletL 4.16266e-05 -2431.67 0.338089 -2431.33
bayInletR 4.85113e-05 -2431.67 0.383965 -2431.28
cabOutletL 0 1201.73 0.11993 1201.85
cabOutletR 0 1157.16 0.123712 1157.29
bayOutletL 0 2394.19 0.2338 2394.43
bayOutletR 0 2468.1 0.231278 2468.34
defaultFaces 0 0 0 0
sum -121.153 -0.478225 0.00923234 -121.622


Wall heat fluxes [W]
topExtWall 1.01823 0 0 1.01823
toFluidR -0.0441082 0 0 -0.0441082
toFluidL -0.0442634 0 0 -0.0442634
defaultFaces 0 0 0 0
sum 0.929857 0 0 0.929857

Time = 15

DILUPBiCG:  Solving for Ux, Initial residual = 0.00379083, Final residual = 2.49835e-06, No Iterations 2
DILUPBiCG:  Solving for Uy, Initial residual = 0.00327504, Final residual = 2.21649e-06, No Iterations 2
DICPCG:  Solving for p_rgh, Initial residual = 0.0522664, Final residual = 5.1327e-05, No Iterations 348
DICPCG:  Solving for p_rgh, Initial residual = 0.0257782, Final residual = 2.50035e-05, No Iterations 111
time step continuity errors : sum local = 7.91413e-06, global = 3.25162e-07, cumulative = 3.33287e-05
DILUPBiCG:  Solving for omega, Initial residual = 0.00176906, Final residual = 1.6122e-05, No Iterations 2
DILUPBiCG:  Solving for k, Initial residual = 0.00561117, Final residual = 2.57916e-05, No Iterations 2
DICPCG:  Solving for G, Initial residual = 0.0126472, Final residual = 0.00119625, No Iterations 146
Before T+T solve
smoothSolver:  Solving for T+T, Initial residual = 7.46533e-05, Final residual = 1.57405e-08, No Iterations 5
Tres = -122.771
TsRes = 0.899171
ExecutionTime = 13.1 s



Wall heat fluxes [W]
cabHeatTransmissiveWall -5.06756 -1.44597e-14 -4.54093 -9.60849
bayHeatTransmissiveWall 0.712798 -5.42379e-15 9.16696 9.87975
walls -5.65948 9.68072e-14 5.79405 0.134568
topExtWall 10.1128 -2.14134e-13 11.4742 21.587
toSolidR -0.564953 -3.24318e-14 0.665469 0.100517
cabInlet 5.28838e-05 -2358.34 0.160917 -2358.18
toSolidL -0.579165 -4.86901e-14 0.67943 0.100265
passengers -57.6654 -8.97192e-14 -9.54372 -67.2091
bottomExtWall 21.6434 -2.30389e-13 25.855 47.4984
core2 -37.9816 1.55563e-13 -18.9658 -56.9474
core1 -47.4792 4.41467e-13 -22.2468 -69.7259
bayInletL 4.86948e-05 -2431.67 0.359382 -2431.31
bayInletR 5.37475e-05 -2431.67 0.406016 -2431.26
cabOutletL 0 1201.34 0.124791 1201.47
cabOutletR 0 1157.83 0.128623 1157.96
bayOutletL 0 2393.17 0.246901 2393.42
bayOutletR 0 2468.97 0.243973 2469.22
defaultFaces 0 0 0 0
sum -122.528 -0.346933 0.00852148 -122.866


Wall heat fluxes [W]
topExtWall 0.971893 0 0 0.971893
toFluidR -0.0465456 0 0 -0.0465456
toFluidL -0.0467578 0 0 -0.0467578
defaultFaces 0 0 0 0
sum 0.878589 0 0 0.878589

Time = 16

DILUPBiCG:  Solving for Ux, Initial residual = 0.00358736, Final residual = 1.86518e-06, No Iterations 2
DILUPBiCG:  Solving for Uy, Initial residual = 0.00307324, Final residual = 2.64178e-06, No Iterations 2
DICPCG:  Solving for p_rgh, Initial residual = 0.0487471, Final residual = 4.80037e-05, No Iterations 208
DICPCG:  Solving for p_rgh, Initial residual = 0.0253645, Final residual = 2.3245e-05, No Iterations 183
time step continuity errors : sum local = 7.48604e-06, global = -3.54639e-07, cumulative = 3.2974e-05
DILUPBiCG:  Solving for omega, Initial residual = 0.00166466, Final residual = 1.50793e-05, No Iterations 2
DILUPBiCG:  Solving for k, Initial residual = 0.00525539, Final residual = 2.61096e-05, No Iterations 2
DICPCG:  Solving for G, Initial residual = 0.0121936, Final residual = 0.00116563, No Iterations 146
Before T+T solve
smoothSolver:  Solving for T+T, Initial residual = 7.46224e-05, Final residual = 1.5847e-08, No Iterations 5
Tres = -124.319
TsRes = 0.852749
ExecutionTime = 13.74 s



Wall heat fluxes [W]
cabHeatTransmissiveWall -5.11875 2.8512e-15 -4.50447 -9.62322
bayHeatTransmissiveWall 0.626575 7.74204e-15 9.26289 9.88946
walls -5.87896 -5.16103e-14 6.01342 0.134462
topExtWall 9.90732 7.95794e-14 11.6792 21.5865
toSolidR -0.582681 9.26218e-15 0.687028 0.104346
cabInlet 5.61097e-05 -2358.34 0.166528 -2358.17
toSolidL -0.597282 -9.73605e-14 0.701044 0.103762
passengers -57.716 -8.48528e-14 -9.86512 -67.5811
bottomExtWall 21.0824 3.7775e-14 26.4317 47.5141
core2 -38.0259 1.21787e-13 -19.4261 -57.452
core1 -47.5307 -4.78862e-13 -22.7254 -70.2562
bayInletL 5.65686e-05 -2431.67 0.380065 -2431.29
bayInletR 5.90567e-05 -2431.67 0.427382 -2431.24
cabOutletL 0 1200.78 0.129559 1200.91
cabOutletR 0 1158.17 0.133449 1158.31
bayOutletL 0 2392.66 0.259691 2392.92
bayOutletR 0 2469.47 0.256336 2469.73
defaultFaces 0 0 0 0
sum -123.834 -0.583127 0.00717951 -124.41


Wall heat fluxes [W]
topExtWall 0.929908 0 0 0.929908
toFluidR -0.0487558 0 0 -0.0487558
toFluidL -0.049037 0 0 -0.049037
defaultFaces 0 0 0 0
sum 0.832115 0 0 0.832115

Time = 17

DILUPBiCG:  Solving for Ux, Initial residual = 0.00339803, Final residual = 1.72759e-06, No Iterations 2
DILUPBiCG:  Solving for Uy, Initial residual = 0.00289906, Final residual = 4.5776e-06, No Iterations 2
DICPCG:  Solving for p_rgh, Initial residual = 0.0467155, Final residual = 4.65389e-05, No Iterations 213
DICPCG:  Solving for p_rgh, Initial residual = 0.0256526, Final residual = 2.55825e-05, No Iterations 100
time step continuity errors : sum local = 8.36463e-06, global = -1.72447e-07, cumulative = 3.28016e-05
DILUPBiCG:  Solving for omega, Initial residual = 0.00157399, Final residual = 1.49305e-05, No Iterations 2
DILUPBiCG:  Solving for k, Initial residual = 0.00495001, Final residual = 2.73687e-05, No Iterations 2
DICPCG:  Solving for G, Initial residual = 0.0118822, Final residual = 0.00118208, No Iterations 145
Before T+T solve
smoothSolver:  Solving for T+T, Initial residual = 7.46145e-05, Final residual = 1.59571e-08, No Iterations 5
Tres = -125.525
TsRes = 0.812339
ExecutionTime = 14.36 s



Wall heat fluxes [W]
cabHeatTransmissiveWall -5.16984 -1.0594e-14 -4.46267 -9.63251
bayHeatTransmissiveWall 0.543316 4.25174e-15 9.35439 9.89771
walls -6.08464 -7.36683e-15 6.2168 0.132163
topExtWall 9.70561 -7.91417e-14 11.8805 21.5861
toSolidR -0.600649 -4.18102e-14 0.708989 0.10834
cabInlet 5.6322e-05 -2358.34 0.172168 -2358.16
toSolidL -0.61548 -6.95423e-14 0.722968 0.107488
passengers -57.7617 2.41181e-13 -10.1877 -67.9494
bottomExtWall 20.5488 3.55173e-14 26.9801 47.5289
core2 -38.0637 3.87127e-13 -19.8641 -57.9277
core1 -47.5758 -1.72e-13 -23.1754 -70.7512
bayInletL 6.54487e-05 -2431.67 0.39996 -2431.27
bayInletR 6.46037e-05 -2431.67 0.448006 -2431.22
cabOutletL 0 1200.39 0.134271 1200.52
cabOutletR 0 1158.61 0.138273 1158.75
bayOutletL 0 2392.47 0.27196 2392.74
bayOutletR 0 2469.64 0.268177 2469.91
defaultFaces 0 0 0 0
sum -125.074 -0.556718 0.00673833 -125.624


Wall heat fluxes [W]
topExtWall 0.8919 0 0 0.8919
toFluidR -0.0508381 0 0 -0.0508381
toFluidL -0.0511892 0 0 -0.0511892
defaultFaces 0 0 0 0
sum 0.789872 0 0 0.789872

Time = 18

DILUPBiCG:  Solving for Ux, Initial residual = 0.00320764, Final residual = 1.6729e-06, No Iterations 2
DILUPBiCG:  Solving for Uy, Initial residual = 0.00273077, Final residual = 5.0611e-06, No Iterations 2
DICPCG:  Solving for p_rgh, Initial residual = 0.0454716, Final residual = 4.50354e-05, No Iterations 202
DICPCG:  Solving for p_rgh, Initial residual = 0.0263162, Final residual = 2.59318e-05, No Iterations 71
time step continuity errors : sum local = 8.6421e-06, global = -1.12056e-07, cumulative = 3.26895e-05
DILUPBiCG:  Solving for omega, Initial residual = 0.00149445, Final residual = 1.38467e-05, No Iterations 2
DILUPBiCG:  Solving for k, Initial residual = 0.00468445, Final residual = 2.98786e-05, No Iterations 2
DICPCG:  Solving for G, Initial residual = 0.0116362, Final residual = 0.0011469, No Iterations 145
Before T+T solve
smoothSolver:  Solving for T+T, Initial residual = 7.46456e-05, Final residual = 1.60626e-08, No Iterations 5
Tres = -126.71
TsRes = 0.774804
ExecutionTime = 14.89 s



Wall heat fluxes [W]
cabHeatTransmissiveWall -5.22098 9.86131e-15 -4.41954 -9.64051
bayHeatTransmissiveWall 0.462547 1.6e-15 9.44118 9.90373
walls -6.28179 -9.64919e-14 6.41379 0.131992
topExtWall 9.50822 -3.04161e-15 12.0795 21.5877
toSolidR -0.61883 1.25266e-13 0.730616 0.111786
cabInlet 5.5377e-05 -2358.34 0.177841 -2358.16
toSolidL -0.633708 4.17775e-14 0.744765 0.111058
passengers -57.7988 4.45076e-14 -10.5092 -68.3081
bottomExtWall 20.0346 -6.97256e-14 27.5119 47.5465
core2 -38.0956 -6.99816e-13 -20.299 -58.3946
core1 -47.6171 8.98751e-14 -23.5983 -71.2154
bayInletL 7.55032e-05 -2431.67 0.419374 -2431.25
bayInletR 7.04427e-05 -2431.67 0.468022 -2431.2
cabOutletL 0 1200.03 0.138938 1200.17
cabOutletR 0 1159 0.143121 1159.14
bayOutletL 0 2392.44 0.283917 2392.73
bayOutletR 0 2469.63 0.279637 2469.91
defaultFaces 0 0 0 0
sum -126.261 -0.558861 0.00651864 -126.814


Wall heat fluxes [W]
topExtWall 0.857469 0 0 0.857469
toFluidR -0.0527881 0 0 -0.0527881
toFluidL -0.0531342 0 0 -0.0531342
defaultFaces 0 0 0 0
sum 0.751547 0 0 0.751547

Time = 19

DILUPBiCG:  Solving for Ux, Initial residual = 0.00304226, Final residual = 1.6034e-06, No Iterations 2
DILUPBiCG:  Solving for Uy, Initial residual = 0.0025828, Final residual = 3.59255e-06, No Iterations 2
DICPCG:  Solving for p_rgh, Initial residual = 0.0446908, Final residual = 4.45213e-05, No Iterations 92
DICPCG:  Solving for p_rgh, Initial residual = 0.0269031, Final residual = 2.64925e-05, No Iterations 79
time step continuity errors : sum local = 9.01905e-06, global = -1.67094e-06, cumulative = 3.10186e-05
DILUPBiCG:  Solving for omega, Initial residual = 0.00142219, Final residual = 1.34179e-05, No Iterations 2
DILUPBiCG:  Solving for k, Initial residual = 0.00445115, Final residual = 3.48242e-05, No Iterations 2
DICPCG:  Solving for G, Initial residual = 0.0115101, Final residual = 0.0011392, No Iterations 145
Before T+T solve
smoothSolver:  Solving for T+T, Initial residual = 7.47164e-05, Final residual = 1.61651e-08, No Iterations 5
Tres = -128.32
TsRes = 0.741477
ExecutionTime = 15.35 s



Wall heat fluxes [W]
cabHeatTransmissiveWall -5.2728 -1.00741e-14 -4.37296 -9.64576
bayHeatTransmissiveWall 0.383346 -3.99598e-16 9.52666 9.91001
walls -6.47247 5.45305e-14 6.60379 0.131318
topExtWall 9.31333 6.41836e-14 12.2762 21.5895
toSolidR -0.637276 -4.1752e-14 0.752274 0.114998
cabInlet 5.47683e-05 -2358.34 0.183556 -2358.15
toSolidL -0.652197 6.48593e-14 0.766595 0.114398
passengers -57.8308 -8.10259e-14 -10.8335 -68.6644
bottomExtWall 19.5376 -5.92125e-14 28.0261 47.5637
core2 -38.1247 2.72431e-13 -20.7084 -58.8331
core1 -47.6538 -4.50624e-13 -24.0188 -71.6726
bayInletL 8.68686e-05 -2431.67 0.438407 -2431.23
bayInletR 7.69928e-05 -2431.67 0.487668 -2431.18
cabOutletL 0 1199.63 0.14368 1199.77
cabOutletR 0 1159.25 0.14804 1159.4
bayOutletL 0 2392.32 0.295564 2392.62
bayOutletR 0 2469.43 0.290852 2469.72
defaultFaces 0 0 0 0
sum -127.41 -1.04143 0.00570378 -128.445


Wall heat fluxes [W]
topExtWall 0.826237 0 0 0.826237
toFluidR -0.0546122 0 0 -0.0546122
toFluidL -0.054958 0 0 -0.054958
defaultFaces 0 0 0 0
sum 0.716667 0 0 0.716667

Time = 20

DILUPBiCG:  Solving for Ux, Initial residual = 0.00290033, Final residual = 1.51968e-06, No Iterations 2
DILUPBiCG:  Solving for Uy, Initial residual = 0.00245578, Final residual = 2.54291e-06, No Iterations 2
DICPCG:  Solving for p_rgh, Initial residual = 0.044021, Final residual = 4.31659e-05, No Iterations 199
DICPCG:  Solving for p_rgh, Initial residual = 0.0272887, Final residual = 2.70508e-05, No Iterations 88
time step continuity errors : sum local = 9.42547e-06, global = -4.74594e-07, cumulative = 3.0544e-05
DILUPBiCG:  Solving for omega, Initial residual = 0.0013563, Final residual = 1.3335e-05, No Iterations 2
DILUPBiCG:  Solving for k, Initial residual = 0.00424607, Final residual = 1.07437e-06, No Iterations 3
DICPCG:  Solving for G, Initial residual = 0.0113762, Final residual = 0.00112993, No Iterations 144
Before T+T solve
smoothSolver:  Solving for T+T, Initial residual = 7.48348e-05, Final residual = 1.62646e-08, No Iterations 5
Tres = -129.049
TsRes = 0.710663
ExecutionTime = 15.95 s



Wall heat fluxes [W]
cabHeatTransmissiveWall -5.32504 3.79595e-15 -4.32451 -9.64955
bayHeatTransmissiveWall 0.307209 1.58308e-16 9.604 9.91121
walls -6.65593 -7.46113e-14 6.78501 0.129075
topExtWall 9.12003 -1.4086e-13 12.473 21.593
toSolidR -0.656043 -6.96444e-14 0.774237 0.118195
cabInlet 5.5343e-05 -2358.34 0.189348 -2358.15
toSolidL -0.670953 4.63916e-14 0.788689 0.117736
passengers -57.8616 1.00729e-13 -11.1601 -69.0218
bottomExtWall 19.0617 5.90729e-14 28.5196 47.5813
core2 -38.1519 7.9684e-14 -21.1045 -59.2564
core1 -47.6869 -2.1826e-14 -24.413 -72.0998
bayInletL 9.96685e-05 -2431.67 0.456893 -2431.21
bayInletR 8.54734e-05 -2431.67 0.50679 -2431.16
cabOutletL 0 1199.48 0.148543 1199.63
cabOutletR 0 1159.74 0.153111 1159.9
bayOutletL 0 2392.4 0.306795 2392.71
bayOutletR 0 2469.35 0.301612 2469.66
defaultFaces 0 0 0 0
sum -128.519 -0.686971 0.00544348 -129.201


Wall heat fluxes [W]
topExtWall 0.797848 0 0 0.797848
toFluidR -0.0563228 0 0 -0.0563228
toFluidL -0.0566281 0 0 -0.0566281
defaultFaces 0 0 0 0
sum 0.684897 0 0 0.684897

Time = 21

DILUPBiCG:  Solving for Ux, Initial residual = 0.00278016, Final residual = 1.48134e-06, No Iterations 2
DILUPBiCG:  Solving for Uy, Initial residual = 0.0023499, Final residual = 1.85052e-06, No Iterations 2
DICPCG:  Solving for p_rgh, Initial residual = 0.0436583, Final residual = 4.17198e-05, No Iterations 92
DICPCG:  Solving for p_rgh, Initial residual = 0.0279947, Final residual = 2.78808e-05, No Iterations 179
time step continuity errors : sum local = 9.9261e-06, global = -2.06863e-07, cumulative = 3.03371e-05
DILUPBiCG:  Solving for omega, Initial residual = 0.00129842, Final residual = 1.13904e-05, No Iterations 2
DILUPBiCG:  Solving for k, Initial residual = 0.00406571, Final residual = 1.02778e-06, No Iterations 3
DICPCG:  Solving for G, Initial residual = 0.0110256, Final residual = 0.00108712, No Iterations 145
Before T+T solve
smoothSolver:  Solving for T+T, Initial residual = 7.49907e-05, Final residual = 1.636e-08, No Iterations 5
Tres = -130.001
TsRes = 0.681895
ExecutionTime = 16.51 s



Wall heat fluxes [W]
cabHeatTransmissiveWall -5.37821 -4.66855e-15 -4.27173 -9.64994
bayHeatTransmissiveWall 0.233363 -3.78799e-16 9.67773 9.91109
walls -6.83183 -7.38717e-16 6.95962 0.127791
topExtWall 8.92805 4.12321e-14 12.6686 21.5967
toSolidR -0.674914 2.77852e-14 0.795807 0.120893
cabInlet 5.84971e-05 -2358.34 0.195165 -2358.14
toSolidL -0.689962 -1.39386e-14 0.810462 0.1205
passengers -57.891 3.94162e-14 -11.4918 -69.3827
bottomExtWall 18.6063 1.94946e-13 28.9925 47.5987
core2 -38.1792 -7.68998e-13 -21.4865 -59.6657
core1 -47.7158 1.79201e-14 -24.7865 -72.5022
bayInletL 0.000114001 -2431.67 0.474814 -2431.19
bayInletR 9.55362e-05 -2431.67 0.52534 -2431.14
cabOutletL 0 1199.18 0.153567 1199.33
cabOutletR 0 1160.01 0.158285 1160.17
bayOutletL 0 2392.5 0.317617 2392.81
bayOutletR 0 2469.39 0.311941 2469.7
defaultFaces 0 0 0 0
sum -129.593 -0.59484 0.00495756 -130.183


Wall heat fluxes [W]
topExtWall 0.771981 0 0 0.771981
toFluidR -0.0578843 0 0 -0.0578843
toFluidL -0.0581972 0 0 -0.0581972
defaultFaces 0 0 0 0
sum 0.6559 0 0 0.6559

Time = 22

DILUPBiCG:  Solving for Ux, Initial residual = 0.00267116, Final residual = 1.59526e-06, No Iterations 2
DILUPBiCG:  Solving for Uy, Initial residual = 0.00225489, Final residual = 1.47833e-06, No Iterations 2
DICPCG:  Solving for p_rgh, Initial residual = 0.0434405, Final residual = 4.32241e-05, No Iterations 92
DICPCG:  Solving for p_rgh, Initial residual = 0.0290396, Final residual = 2.83931e-05, No Iterations 65
time step continuity errors : sum local = 1.03108e-05, global = 2.4698e-07, cumulative = 3.05841e-05
DILUPBiCG:  Solving for omega, Initial residual = 0.0012459, Final residual = 1.02408e-05, No Iterations 2
DILUPBiCG:  Solving for k, Initial residual = 0.00390364, Final residual = 1.00114e-06, No Iterations 3
DICPCG:  Solving for G, Initial residual = 0.0109919, Final residual = 0.00108202, No Iterations 145
Before T+T solve
smoothSolver:  Solving for T+T, Initial residual = 7.52082e-05, Final residual = 1.64541e-08, No Iterations 5
Tres = -130.857
TsRes = 0.656236
ExecutionTime = 16.97 s



Wall heat fluxes [W]
cabHeatTransmissiveWall -5.43242 -4.08599e-15 -4.21701 -9.64944
bayHeatTransmissiveWall 0.160742 -3.51889e-16 9.75067 9.91141
walls -7.00436 2.72664e-14 7.13211 0.12775
topExtWall 8.73728 -5.94851e-14 12.8632 21.6005
toSolidR -0.694166 8.35738e-14 0.817581 0.123415
cabInlet 6.49087e-05 -2358.34 0.201034 -2358.13
toSolidL -0.709228 1.39185e-14 0.832301 0.123074
passengers -57.9172 2.63137e-13 -11.825 -69.7422
bottomExtWall 18.1616 2.12502e-14 29.4555 47.6171
core2 -38.2048 1.16882e-13 -21.851 -60.0558
core1 -47.7381 -9.84345e-14 -25.1636 -72.9017
bayInletL 0.000129851 -2431.67 0.492427 -2431.17
bayInletR 0.000107032 -2431.67 0.543688 -2431.12
cabOutletL 0 1198.99 0.158723 1199.15
cabOutletR 0 1160.32 0.163535 1160.49
bayOutletL 0 2392.62 0.328159 2392.95
bayOutletR 0 2469.29 0.322034 2469.61
defaultFaces 0 0 0 0
sum -130.64 -0.440809 0.00445508 -131.077


Wall heat fluxes [W]
topExtWall 0.748351 0 0 0.748351
toFluidR -0.0593529 0 0 -0.0593529
toFluidL -0.0596772 0 0 -0.0596772
defaultFaces 0 0 0 0
sum 0.629321 0 0 0.629321

Time = 23

DILUPBiCG:  Solving for Ux, Initial residual = 0.00257124, Final residual = 1.26277e-06, No Iterations 2
DILUPBiCG:  Solving for Uy, Initial residual = 0.00216654, Final residual = 1.28171e-06, No Iterations 2
DICPCG:  Solving for p_rgh, Initial residual = 0.044468, Final residual = 4.05589e-05, No Iterations 89
DICPCG:  Solving for p_rgh, Initial residual = 0.031258, Final residual = 3.09295e-05, No Iterations 66
time step continuity errors : sum local = 1.14487e-05, global = 7.19048e-07, cumulative = 3.13031e-05
DILUPBiCG:  Solving for omega, Initial residual = 0.00119829, Final residual = 1.01129e-05, No Iterations 2
DILUPBiCG:  Solving for k, Initial residual = 0.00375717, Final residual = 1.00095e-06, No Iterations 3
DICPCG:  Solving for G, Initial residual = 0.0108594, Final residual = 0.0010732, No Iterations 144
Before T+T solve
smoothSolver:  Solving for T+T, Initial residual = 7.54477e-05, Final residual = 1.65473e-08, No Iterations 5
Tres = -131.686
TsRes = 0.631549
ExecutionTime = 17.45 s



Wall heat fluxes [W]
cabHeatTransmissiveWall -5.48766 -7.75024e-15 -4.15906 -9.64671
bayHeatTransmissiveWall 0.090033 3.65109e-16 9.8185 9.90853
walls -7.17214 -4.67444e-14 7.29806 0.125918
topExtWall 8.54705 1.04596e-14 13.0589 21.6059
toSolidR -0.713688 -2.31688e-14 0.839695 0.126006
cabInlet 7.49371e-05 -2358.34 0.206973 -2358.13
toSolidL -0.72882 -1.02095e-13 0.854468 0.125648
passengers -57.9417 -2.48128e-13 -12.1631 -70.1048
bottomExtWall 17.7321 1.65474e-14 29.9042 47.6363
core2 -38.2274 -5.20688e-13 -22.198 -60.4254
core1 -47.7732 2.2452e-13 -25.5306 -73.3038
bayInletL 0.000147319 -2431.67 0.509602 -2431.16
bayInletR 0.000119963 -2431.67 0.561762 -2431.1
cabOutletL 0 1198.85 0.164017 1199.01
cabOutletR 0 1160.6 0.168915 1160.77
bayOutletL 0 2392.87 0.338261 2393.21
bayOutletR 0 2469.07 0.331757 2469.41
defaultFaces 0 0 0 0
sum -131.675 -0.271135 0.00434462 -131.942


Wall heat fluxes [W]
topExtWall 0.726704 0 0 0.726704
toFluidR -0.0607109 0 0 -0.0607109
toFluidL -0.0610851 0 0 -0.0610851
defaultFaces 0 0 0 0
sum 0.604908 0 0 0.604908

Time = 24

DILUPBiCG:  Solving for Ux, Initial residual = 0.00247968, Final residual = 2.03423e-06, No Iterations 2
DILUPBiCG:  Solving for Uy, Initial residual = 0.00208928, Final residual = 1.13013e-06, No Iterations 2
DICPCG:  Solving for p_rgh, Initial residual = 0.040779, Final residual = 3.78572e-05, No Iterations 89
DICPCG:  Solving for p_rgh, Initial residual = 0.0287023, Final residual = 2.78704e-05, No Iterations 79
time step continuity errors : sum local = 1.04283e-05, global = 1.21614e-06, cumulative = 3.25193e-05
DILUPBiCG:  Solving for omega, Initial residual = 0.00115269, Final residual = 1.88684e-06, No Iterations 3
DILUPBiCG:  Solving for k, Initial residual = 0.00362574, Final residual = 1.0342e-06, No Iterations 3
DICPCG:  Solving for G, Initial residual = 0.0105711, Final residual = 0.00105158, No Iterations 144
Before T+T solve
smoothSolver:  Solving for T+T, Initial residual = 7.56938e-05, Final residual = 1.66352e-08, No Iterations 5
Tres = -132.446
TsRes = 0.610329
ExecutionTime = 17.92 s



Wall heat fluxes [W]
cabHeatTransmissiveWall -5.54371 7.45586e-15 -4.09747 -9.64119
bayHeatTransmissiveWall 0.0221041 6.30517e-16 9.87883 9.90093
walls -7.33337 1.07436e-14 7.45665 0.123278
topExtWall 8.35725 3.50719e-15 13.2549 21.6121
toSolidR -0.733539 6.49053e-14 0.862164 0.128624
cabInlet 8.86825e-05 -2358.34 0.212988 -2358.12
toSolidL -0.74877 7.43249e-14 0.876981 0.128211
passengers -57.9643 3.19444e-13 -12.508 -70.4723
bottomExtWall 17.3247 9.46278e-14 30.3292 47.6539
core2 -38.2471 6.00494e-13 -22.532 -60.779
core1 -47.799 7.08638e-13 -25.8692 -73.6682
bayInletL 0.000166501 -2431.67 0.52633 -2431.14
bayInletR 0.000134371 -2431.67 0.57914 -2431.09
cabOutletL 0 1198.72 0.169455 1198.89
cabOutletR 0 1160.86 0.174439 1161.03
bayOutletL 0 2393.28 0.347947 2393.63
bayOutletR 0 2468.73 0.341073 2469.07
defaultFaces 0 0 0 0
sum -132.665 -0.0830845 0.00331504 -132.745


Wall heat fluxes [W]
topExtWall 0.706819 0 0 0.706819
toFluidR -0.062014 0 0 -0.062014
toFluidL -0.0624338 0 0 -0.0624338
defaultFaces 0 0 0 0
sum 0.582371 0 0 0.582371

Time = 25

DILUPBiCG:  Solving for Ux, Initial residual = 0.00239894, Final residual = 1.72753e-06, No Iterations 2
DILUPBiCG:  Solving for Uy, Initial residual = 0.00202053, Final residual = 1.02476e-06, No Iterations 2
DICPCG:  Solving for p_rgh, Initial residual = 0.0390778, Final residual = 3.87539e-05, No Iterations 102
DICPCG:  Solving for p_rgh, Initial residual = 0.0272708, Final residual = 2.72394e-05, No Iterations 152
time step continuity errors : sum local = 1.03091e-05, global = 9.65529e-07, cumulative = 3.34848e-05
DILUPBiCG:  Solving for omega, Initial residual = 0.00111237, Final residual = 1.83098e-06, No Iterations 3
DILUPBiCG:  Solving for k, Initial residual = 0.00350598, Final residual = 1.05049e-06, No Iterations 3
DICPCG:  Solving for G, Initial residual = 0.0103553, Final residual = 0.00103236, No Iterations 145
Before T+T solve
smoothSolver:  Solving for T+T, Initial residual = 7.59168e-05, Final residual = 1.67214e-08, No Iterations 5
Tres = -133.394
TsRes = 0.58986
ExecutionTime = 18.5 s



Wall heat fluxes [W]
cabHeatTransmissiveWall -5.60158 2.76975e-15 -4.03066 -9.63224
bayHeatTransmissiveWall -0.0449047 -3.07408e-15 9.9388 9.8939
walls -7.49145 -3.6083e-14 7.61509 0.12364
topExtWall 8.16633 1.53544e-13 13.4514 21.6177
toSolidR -0.753729 -7.4388e-14 0.88501 0.131281
cabInlet 0.000105912 -2358.34 0.2191 -2358.12
toSolidL -0.769119 -9.31871e-15 0.900009 0.130889
passengers -57.985 1.49673e-13 -12.8613 -70.8462
bottomExtWall 16.9292 1.90498e-13 30.7441 47.6733
core2 -38.2643 4.41086e-13 -22.8656 -61.1299
core1 -47.818 3.30945e-13 -26.1959 -74.0139
bayInletL 0.000187576 -2431.67 0.542846 -2431.12
bayInletR 0.000150074 -2431.67 0.596102 -2431.07
cabOutletL 0 1198.48 0.175058 1198.66
cabOutletR 0 1161.02 0.180119 1161.2
bayOutletL 0 2393.68 0.35751 2394.04
bayOutletR 0 2468.38 0.350228 2468.73
defaultFaces 0 0 0 0
sum -133.632 -0.107558 0.00187728 -133.738


Wall heat fluxes [W]
topExtWall 0.688502 0 0 0.688502
toFluidR -0.0632706 0 0 -0.0632706
toFluidL -0.0637181 0 0 -0.0637181
defaultFaces 0 0 0 0
sum 0.561514 0 0 0.561514

Time = 26

DILUPBiCG:  Solving for Ux, Initial residual = 0.00232734, Final residual = 3.90746e-06, No Iterations 2
DILUPBiCG:  Solving for Uy, Initial residual = 0.00195146, Final residual = 9.51945e-07, No Iterations 2
DICPCG:  Solving for p_rgh, Initial residual = 0.0386581, Final residual = 3.85862e-05, No Iterations 95
DICPCG:  Solving for p_rgh, Initial residual = 0.0271411, Final residual = 2.61871e-05, No Iterations 65
time step continuity errors : sum local = 1.00451e-05, global = 1.33635e-06, cumulative = 3.48212e-05
DILUPBiCG:  Solving for omega, Initial residual = 0.0010743, Final residual = 1.77576e-06, No Iterations 3
DILUPBiCG:  Solving for k, Initial residual = 0.00339684, Final residual = 1.07334e-06, No Iterations 3
DICPCG:  Solving for G, Initial residual = 0.010481, Final residual = 0.00102544, No Iterations 145
Before T+T solve
smoothSolver:  Solving for T+T, Initial residual = 7.6196e-05, Final residual = 1.68053e-08, No Iterations 5
Tres = -134.126
TsRes = 0.570695
ExecutionTime = 18.95 s



Wall heat fluxes [W]
cabHeatTransmissiveWall -5.66045 -3.20902e-15 -3.9636 -9.62404
bayHeatTransmissiveWall -0.1113 3.7261e-16 9.99796 9.88666
walls -7.64872 3.70659e-15 7.77256 0.123845
topExtWall 7.97601 -1.95014e-14 13.6501 21.6261
toSolidR -0.774155 -9.2255e-15 0.907846 0.133691
cabInlet 0.000126319 -2358.34 0.225293 -2358.11
toSolidL -0.789819 1.06746e-13 0.923125 0.133306
passengers -58.0053 6.02773e-15 -13.2164 -71.2217
bottomExtWall 16.54 4.5756e-15 31.1533 47.6933
core2 -38.2788 -9.10973e-14 -23.1979 -61.4768
core1 -47.8338 2.60902e-13 -26.5158 -74.3496
bayInletL 0.000210385 -2431.67 0.559278 -2431.11
bayInletR 0.00016707 -2431.67 0.61302 -2431.05
cabOutletL 0 1198.38 0.18083 1198.56
cabOutletR 0 1161.17 0.185917 1161.35
bayOutletL 0 2394.25 0.366923 2394.61
bayOutletR 0 2467.94 0.359233 2468.3
defaultFaces 0 0 0 0
sum -134.586 0.0637625 0.00162387 -134.52


Wall heat fluxes [W]
topExtWall 0.671588 0 0 0.671588
toFluidR -0.0644653 0 0 -0.0644653
toFluidL -0.064958 0 0 -0.064958
defaultFaces 0 0 0 0
sum 0.542164 0 0 0.542164

Time = 27

DILUPBiCG:  Solving for Ux, Initial residual = 0.00226379, Final residual = 1.34455e-06, No Iterations 2
DILUPBiCG:  Solving for Uy, Initial residual = 0.00189255, Final residual = 9.00742e-07, No Iterations 2
DICPCG:  Solving for p_rgh, Initial residual = 0.0388326, Final residual = 3.82338e-05, No Iterations 93
DICPCG:  Solving for p_rgh, Initial residual = 0.0275995, Final residual = 2.62925e-05, No Iterations 52
time step continuity errors : sum local = 1.02501e-05, global = 1.31298e-06, cumulative = 3.61342e-05
DILUPBiCG:  Solving for omega, Initial residual = 0.00103885, Final residual = 1.70767e-06, No Iterations 3
DILUPBiCG:  Solving for k, Initial residual = 0.00329661, Final residual = 1.0969e-06, No Iterations 3
DICPCG:  Solving for G, Initial residual = 0.0103202, Final residual = 0.00102075, No Iterations 145
Before T+T solve
smoothSolver:  Solving for T+T, Initial residual = 7.64945e-05, Final residual = 1.68869e-08, No Iterations 5
Tres = -134.959
TsRes = 0.553831
ExecutionTime = 19.39 s



Wall heat fluxes [W]
cabHeatTransmissiveWall -5.722 7.61023e-15 -3.88982 -9.61182
bayHeatTransmissiveWall -0.177768 -5.33459e-16 10.0562 9.87842
walls -7.80578 -2.47332e-14 7.93017 0.12439
topExtWall 7.7834 -1.12463e-13 13.8509 21.6343
toSolidR -0.795067 1.20747e-13 0.931794 0.136727
cabInlet 0.000149813 -2358.34 0.231621 -2358.1
toSolidL -0.81106 4.18363e-14 0.947328 0.136268
passengers -58.025 5.88355e-14 -13.5838 -71.6088
bottomExtWall 16.1578 -1.42819e-14 31.5584 47.7162
core2 -38.2896 7.70079e-13 -23.5245 -61.8141
core1 -47.8484 -4.33011e-13 -26.8356 -74.684
bayInletL 0.000235008 -2431.67 0.575572 -2431.09
bayInletR 0.000185312 -2431.67 0.629964 -2431.04
cabOutletL 0 1198.31 0.186842 1198.49
cabOutletR 0 1161.33 0.191902 1161.52
bayOutletL 0 2394.67 0.376201 2395.04
bayOutletR 0 2467.49 0.368107 2467.86
defaultFaces 0 0 0 0
sum -135.533 0.12193 0.00126597 -135.41


Wall heat fluxes [W]
topExtWall 0.655927 0 0 0.655927
toFluidR -0.0656362 0 0 -0.0656362
toFluidL -0.0661733 0 0 -0.0661733
defaultFaces 0 0 0 0
sum 0.524117 0 0 0.524117

Time = 28

DILUPBiCG:  Solving for Ux, Initial residual = 0.002203, Final residual = 1.26108e-06, No Iterations 2
DILUPBiCG:  Solving for Uy, Initial residual = 0.00184091, Final residual = 8.60333e-07, No Iterations 2
DICPCG:  Solving for p_rgh, Initial residual = 0.0398485, Final residual = 3.85068e-05, No Iterations 66
DICPCG:  Solving for p_rgh, Initial residual = 0.0284967, Final residual = 2.81777e-05, No Iterations 50
time step continuity errors : sum local = 1.12013e-05, global = 1.18518e-06, cumulative = 3.73193e-05
DILUPBiCG:  Solving for omega, Initial residual = 0.00100593, Final residual = 1.65226e-06, No Iterations 3
DILUPBiCG:  Solving for k, Initial residual = 0.00320407, Final residual = 1.14089e-06, No Iterations 3
DICPCG:  Solving for G, Initial residual = 0.010616, Final residual = 0.0010438, No Iterations 145
Before T+T solve
smoothSolver:  Solving for T+T, Initial residual = 7.68199e-05, Final residual = 1.69677e-08, No Iterations 5
Tres = -135.819
TsRes = 0.538103
ExecutionTime = 19.8 s



Wall heat fluxes [W]
cabHeatTransmissiveWall -5.78506 -1.2145e-14 -3.81634 -9.6014
bayHeatTransmissiveWall -0.244635 -6.9173e-16 10.1163 9.87162
walls -7.96664 1.69918e-14 8.09277 0.126135
topExtWall 7.59297 6.88419e-14 14.0517 21.6447
toSolidR -0.816336 9.3632e-15 0.955634 0.139298
cabInlet 0.000176262 -2358.34 0.23805 -2358.1
toSolidL -0.832683 4.64829e-14 0.971412 0.138728
passengers -58.0445 -8.61497e-14 -13.9513 -71.9958
bottomExtWall 15.7776 -6.73016e-14 31.9639 47.7415
core2 -38.2989 -2.34339e-13 -23.8498 -62.1488
core1 -47.8676 3.56336e-13 -27.1641 -75.0317
bayInletL 0.000261514 -2431.67 0.592074 -2431.07
bayInletR 0.000204738 -2431.67 0.647207 -2431.02
cabOutletL 0 1198.32 0.192919 1198.51
cabOutletR 0 1161.51 0.197986 1161.71
bayOutletL 0 2395.02 0.385591 2395.4
bayOutletR 0 2466.98 0.377055 2467.36
defaultFaces 0 0 0 0
sum -136.485 0.153353 0.00101226 -136.331


Wall heat fluxes [W]
topExtWall 0.64139 0 0 0.64139
toFluidR -0.0667766 0 0 -0.0667766
toFluidL -0.0673567 0 0 -0.0673567
defaultFaces 0 0 0 0
sum 0.507256 0 0 0.507256

Time = 29

DILUPBiCG:  Solving for Ux, Initial residual = 0.00214837, Final residual = 1.23517e-06, No Iterations 2
DILUPBiCG:  Solving for Uy, Initial residual = 0.00179722, Final residual = 8.27085e-07, No Iterations 2
DICPCG:  Solving for p_rgh, Initial residual = 0.0402411, Final residual = 3.91808e-05, No Iterations 94
DICPCG:  Solving for p_rgh, Initial residual = 0.0283373, Final residual = 2.81847e-05, No Iterations 119
time step continuity errors : sum local = 1.14447e-05, global = 6.02938e-07, cumulative = 3.79223e-05
DILUPBiCG:  Solving for omega, Initial residual = 0.000974747, Final residual = 1.59021e-06, No Iterations 3
DILUPBiCG:  Solving for k, Initial residual = 0.00311915, Final residual = 1.13614e-06, No Iterations 3
DICPCG:  Solving for G, Initial residual = 0.0105491, Final residual = 0.00103819, No Iterations 145
Before T+T solve
smoothSolver:  Solving for T+T, Initial residual = 7.71931e-05, Final residual = 1.7049e-08, No Iterations 5
Tres = -136.809
TsRes = 0.522743
ExecutionTime = 20.3 s



Wall heat fluxes [W]
cabHeatTransmissiveWall -5.84957 -9.37253e-15 -3.74051 -9.59007
bayHeatTransmissiveWall -0.31076 2.73534e-17 10.1735 9.86275
walls -8.12718 4.45197e-14 8.25389 0.126711
topExtWall 7.40242 -1.15642e-13 14.2519 21.6543
toSolidR -0.837839 -1.2081e-13 0.979789 0.14195
cabInlet 0.000205524 -2358.34 0.244589 -2358.09
toSolidL -0.854741 3.7102e-14 0.996129 0.141388
passengers -58.0629 5.60891e-14 -14.3225 -72.3853
bottomExtWall 15.4028 -2.59884e-14 32.363 47.7658
core2 -38.3082 2.18863e-13 -24.1774 -62.4856
core1 -47.8914 -2.41639e-13 -27.479 -75.3704
bayInletL 0.000289998 -2431.67 0.608634 -2431.06
bayInletR 0.000225355 -2431.67 0.664458 -2431
cabOutletL 0 1198.27 0.19909 1198.47
cabOutletR 0 1161.68 0.204165 1161.88
bayOutletL 0 2395.25 0.39501 2395.65
bayOutletR 0 2466.52 0.385962 2466.91
defaultFaces 0 0 0 0
sum -137.437 0.0567466 0.000679804 -137.379


Wall heat fluxes [W]
topExtWall 0.627864 0 0 0.627864
toFluidR -0.067868 0 0 -0.067868
toFluidL -0.0685182 0 0 -0.0685182
defaultFaces 0 0 0 0
sum 0.491478 0 0 0.491478

Time = 30

DILUPBiCG:  Solving for Ux, Initial residual = 0.00209654, Final residual = 1.1988e-06, No Iterations 2
DILUPBiCG:  Solving for Uy, Initial residual = 0.00176025, Final residual = 7.92481e-07, No Iterations 2
DICPCG:  Solving for p_rgh, Initial residual = 0.0391724, Final residual = 3.89954e-05, No Iterations 102
DICPCG:  Solving for p_rgh, Initial residual = 0.0258825, Final residual = 2.48986e-05, No Iterations 173
time step continuity errors : sum local = 1.03564e-05, global = 3.13292e-08, cumulative = 3.79536e-05
DILUPBiCG:  Solving for omega, Initial residual = 0.000946086, Final residual = 1.5145e-06, No Iterations 3
DILUPBiCG:  Solving for k, Initial residual = 0.00304074, Final residual = 1.13952e-06, No Iterations 3
DICPCG:  Solving for G, Initial residual = 0.0108054, Final residual = 0.00104854, No Iterations 144
Before T+T solve
smoothSolver:  Solving for T+T, Initial residual = 7.7512e-05, Final residual = 1.71239e-08, No Iterations 5
Tres = -137.758
TsRes = 0.508752
ExecutionTime = 20.87 s



Wall heat fluxes [W]
cabHeatTransmissiveWall -5.91508 -1.02427e-14 -3.66137 -9.57645
bayHeatTransmissiveWall -0.375412 -1.63179e-15 10.2231 9.84767
walls -8.2815 -7.86479e-14 8.4075 0.126004
topExtWall 7.2126 9.17806e-14 14.4541 21.6667
toSolidR -0.859678 7.43222e-14 1.00452 0.144838
cabInlet 0.000237403 -2358.34 0.251244 -2358.08
toSolidL -0.877204 1.11513e-13 1.02112 0.143911
passengers -58.0805 -1.29293e-14 -14.7009 -72.7814
bottomExtWall 15.0379 8.26272e-14 32.7511 47.789
core2 -38.3294 -8.90088e-13 -24.5112 -62.8406
core1 -47.9059 2.56895e-13 -27.7606 -75.6665
bayInletL 0.000320621 -2431.67 0.624895 -2431.04
bayInletR 0.000247146 -2431.67 0.681163 -2430.98
cabOutletL 0 1198.06 0.205373 1198.27
cabOutletR 0 1161.62 0.210459 1161.83
bayOutletL 0 2395.59 0.404379 2396
bayOutletR 0 2466.37 0.39472 2466.76
defaultFaces 0 0 0 0
sum -138.373 -0.0162097 -0.000464144 -138.39


Wall heat fluxes [W]
topExtWall 0.615249 0 0 0.615249
toFluidR -0.068944 0 0 -0.068944
toFluidL -0.0696582 0 0 -0.0696582
defaultFaces 0 0 0 0
sum 0.476647 0 0 0.476647

Time = 31

DILUPBiCG:  Solving for Ux, Initial residual = 0.00204214, Final residual = 1.57843e-06, No Iterations 2
DILUPBiCG:  Solving for Uy, Initial residual = 0.00171494, Final residual = 7.77353e-07, No Iterations 2
DICPCG:  Solving for p_rgh, Initial residual = 0.03656, Final residual = 3.65587e-05, No Iterations 100
DICPCG:  Solving for p_rgh, Initial residual = 0.0261358, Final residual = 2.59972e-05, No Iterations 70
time step continuity errors : sum local = 1.08881e-05, global = 7.24893e-07, cumulative = 3.86785e-05
DILUPBiCG:  Solving for omega, Initial residual = 0.000919485, Final residual = 1.43198e-06, No Iterations 3
DILUPBiCG:  Solving for k, Initial residual = 0.00296781, Final residual = 1.12355e-06, No Iterations 3
DICPCG:  Solving for G, Initial residual = 0.0108777, Final residual = 0.00102825, No Iterations 144
Before T+T solve
smoothSolver:  Solving for T+T, Initial residual = 7.78744e-05, Final residual = 1.72022e-08, No Iterations 5
Tres = -138.3
TsRes = 0.495624
ExecutionTime = 21.37 s



Wall heat fluxes [W]
cabHeatTransmissiveWall -5.98256 1.83229e-14 -3.57546 -9.55801
bayHeatTransmissiveWall -0.438977 -2.4664e-16 10.2678 9.82887
walls -8.4287 -2.6629e-14 8.55281 0.124115
topExtWall 7.02133 -5.15677e-14 14.658 21.6793
toSolidR -0.882647 5.57413e-14 1.03044 0.147791
cabInlet 0.000271558 -2358.34 0.258058 -2358.08
toSolidL -0.900206 4.64292e-14 1.04703 0.146825
passengers -58.0977 -2.29793e-13 -15.0912 -73.1889
bottomExtWall 14.6898 5.95919e-15 33.1206 47.8104
core2 -38.3524 -1.29601e-12 -24.8147 -63.1671
core1 -47.9189 -7.04437e-13 -28.0376 -75.9565
bayInletL 0.000353277 -2431.67 0.64067 -2431.02
bayInletR 0.000269997 -2431.67 0.6973 -2430.97
cabOutletL 0 1198 0.211766 1198.21
cabOutletR 0 1161.75 0.216979 1161.97
bayOutletL 0 2395.98 0.413147 2396.39
bayOutletR 0 2466.24 0.403048 2466.64
defaultFaces 0 0 0 0
sum -139.29 0.29603 -0.00114025 -138.995


Wall heat fluxes [W]
topExtWall 0.603459 0 0 0.603459
toFluidR -0.0700223 0 0 -0.0700223
toFluidL -0.070789 0 0 -0.070789
defaultFaces 0 0 0 0
sum 0.462648 0 0 0.462648

Time = 32

DILUPBiCG:  Solving for Ux, Initial residual = 0.00200505, Final residual = 1.34849e-06, No Iterations 2
DILUPBiCG:  Solving for Uy, Initial residual = 0.00167708, Final residual = 7.42452e-07, No Iterations 2
DICPCG:  Solving for p_rgh, Initial residual = 0.0355657, Final residual = 3.48754e-05, No Iterations 65
DICPCG:  Solving for p_rgh, Initial residual = 0.0258935, Final residual = 2.46443e-05, No Iterations 50
time step continuity errors : sum local = 1.03538e-05, global = 1.57455e-06, cumulative = 4.0253e-05
DILUPBiCG:  Solving for omega, Initial residual = 0.000893832, Final residual = 1.35538e-06, No Iterations 3
DILUPBiCG:  Solving for k, Initial residual = 0.00290055, Final residual = 1.12467e-06, No Iterations 3
DICPCG:  Solving for G, Initial residual = 0.010833, Final residual = 0.00104758, No Iterations 143
Before T+T solve
smoothSolver:  Solving for T+T, Initial residual = 7.82081e-05, Final residual = 1.72827e-08, No Iterations 5
Tres = -138.751
TsRes = 0.483519
ExecutionTime = 21.78 s



Wall heat fluxes [W]
cabHeatTransmissiveWall -6.05134 -1.52745e-14 -3.4856 -9.53694
bayHeatTransmissiveWall -0.500065 5.29142e-15 10.3067 9.80666
walls -8.56931 -7.40552e-15 8.69158 0.122272
topExtWall 6.8294 2.38671e-13 14.8623 21.6917
toSolidR -0.906038 -3.24303e-17 1.05624 0.150197
cabInlet 0.000307612 -2358.34 0.265018 -2358.07
toSolidL -0.923727 -5.58388e-14 1.07343 0.1497
passengers -58.1144 -4.77761e-14 -15.4872 -73.6016
bottomExtWall 14.3601 2.50665e-14 33.4703 47.8304
core2 -38.3636 -4.7444e-13 -25.0788 -63.4424
core1 -47.9315 -5.29728e-13 -28.3195 -76.251
bayInletL 0.000387842 -2431.67 0.655798 -2431.01
bayInletR 0.000293926 -2431.67 0.71304 -2430.95
cabOutletL 0 1197.97 0.218268 1198.19
cabOutletR 0 1161.89 0.223633 1162.12
bayOutletL 0 2396.25 0.421254 2396.67
bayOutletR 0 2466.21 0.410957 2466.62
defaultFaces 0 0 0 0
sum -140.17 0.662277 -0.00258253 -139.51


Wall heat fluxes [W]
topExtWall 0.592417 0 0 0.592417
toFluidR -0.0710847 0 0 -0.0710847
toFluidL -0.0719107 0 0 -0.0719107
defaultFaces 0 0 0 0
sum 0.449422 0 0 0.449422

Time = 33

DILUPBiCG:  Solving for Ux, Initial residual = 0.00197192, Final residual = 1.60738e-06, No Iterations 2
DILUPBiCG:  Solving for Uy, Initial residual = 0.00164185, Final residual = 7.17889e-07, No Iterations 2
DICPCG:  Solving for p_rgh, Initial residual = 0.0358665, Final residual = 3.43722e-05, No Iterations 187
DICPCG:  Solving for p_rgh, Initial residual = 0.0261546, Final residual = 2.61125e-05, No Iterations 51
time step continuity errors : sum local = 1.10715e-05, global = -5.9329e-07, cumulative = 3.96598e-05
DILUPBiCG:  Solving for omega, Initial residual = 0.00087183, Final residual = 1.28578e-06, No Iterations 3
DILUPBiCG:  Solving for k, Initial residual = 0.00283704, Final residual = 1.0438e-06, No Iterations 3
DICPCG:  Solving for G, Initial residual = 0.0106399, Final residual = 0.00102549, No Iterations 144
Before T+T solve
smoothSolver:  Solving for T+T, Initial residual = 7.85578e-05, Final residual = 1.73627e-08, No Iterations 5
Tres = -140.101
TsRes = 0.472126
ExecutionTime = 22.3 s



Wall heat fluxes [W]
cabHeatTransmissiveWall -6.12253 -1.0976e-14 -3.39123 -9.51376
bayHeatTransmissiveWall -0.562115 -2.32547e-15 10.3511 9.78895
walls -8.7122 9.79092e-14 8.83625 0.124056
topExtWall 6.63812 4.8046e-14 15.0688 21.7069
toSolidR -0.929832 -1.86409e-14 1.08266 0.152829
cabInlet 0.000345218 -2358.34 0.272097 -2358.06
toSolidL -0.947616 -8.3723e-14 1.09989 0.152273
passengers -58.13 5.76443e-13 -15.8912 -74.0212
bottomExtWall 14.031 1.29716e-14 33.8251 47.8561
core2 -38.3696 5.75882e-14 -25.3542 -63.7238
core1 -47.942 -1.73859e-13 -28.6062 -76.5482
bayInletL 0.000424092 -2431.67 0.670949 -2430.99
bayInletR 0.000318921 -2431.67 0.728851 -2430.94
cabOutletL 0 1197.83 0.224845 1198.06
cabOutletR 0 1161.89 0.230438 1162.12
bayOutletL 0 2396.27 0.429553 2396.7
bayOutletR 0 2465.79 0.418979 2466.21
defaultFaces 0 0 0 0
sum -141.046 0.121963 -0.00329991 -140.927


Wall heat fluxes [W]
topExtWall 0.582055 0 0 0.582055
toFluidR -0.0721418 0 0 -0.0721418
toFluidL -0.0730178 0 0 -0.0730178
defaultFaces 0 0 0 0
sum 0.436895 0 0 0.436895

Time = 34

DILUPBiCG:  Solving for Ux, Initial residual = 0.00192716, Final residual = 1.91929e-06, No Iterations 2
DILUPBiCG:  Solving for Uy, Initial residual = 0.0016086, Final residual = 7.01836e-07, No Iterations 2
DICPCG:  Solving for p_rgh, Initial residual = 0.0342394, Final residual = 3.36367e-05, No Iterations 60
DICPCG:  Solving for p_rgh, Initial residual = 0.0260456, Final residual = 2.53515e-05, No Iterations 50
time step continuity errors : sum local = 1.09167e-05, global = 4.32507e-08, cumulative = 3.9703e-05
DILUPBiCG:  Solving for omega, Initial residual = 0.000849234, Final residual = 1.25179e-06, No Iterations 3
DILUPBiCG:  Solving for k, Initial residual = 0.00277821, Final residual = 9.29926e-07, No Iterations 3
DICPCG:  Solving for G, Initial residual = 0.0107852, Final residual = 0.00104128, No Iterations 144
Before T+T solve
smoothSolver:  Solving for T+T, Initial residual = 7.89158e-05, Final residual = 1.74381e-08, No Iterations 5
Tres = -140.601
TsRes = 0.461384
ExecutionTime = 22.69 s



Wall heat fluxes [W]
cabHeatTransmissiveWall -6.19532 7.33514e-15 -3.29666 -9.49198
bayHeatTransmissiveWall -0.624853 5.92369e-16 10.3963 9.77142
walls -8.85908 -9.38044e-14 8.98616 0.127078
topExtWall 6.44865 -1.66216e-13 15.2741 21.7227
toSolidR -0.953962 1.8603e-13 1.10909 0.155132
cabInlet 0.000384076 -2358.34 0.279284 -2358.06
toSolidL -0.971885 -1.85584e-14 1.1265 0.154616
passengers -58.1457 4.02698e-14 -16.2942 -74.4399
bottomExtWall 13.6999 -1.84384e-13 34.1838 47.8837
core2 -38.3735 -2.835e-13 -25.6442 -64.0177
core1 -47.9541 1.36557e-14 -28.8896 -76.8437
bayInletL 0.000462166 -2431.67 0.686448 -2430.98
bayInletR 0.00034492 -2431.67 0.745023 -2430.92
cabOutletL 0 1197.86 0.231516 1198.09
cabOutletR 0 1162.12 0.23741 1162.36
bayOutletL 0 2396.49 0.438245 2396.93
bayOutletR 0 2465.63 0.427232 2466.06
defaultFaces 0 0 0 0
sum -141.929 0.436857 -0.00359539 -141.495


Wall heat fluxes [W]
topExtWall 0.572312 0 0 0.572312
toFluidR -0.0731873 0 0 -0.0731873
toFluidL -0.0741083 0 0 -0.0741083
defaultFaces 0 0 0 0
sum 0.425016 0 0 0.425016

Time = 35

DILUPBiCG:  Solving for Ux, Initial residual = 0.00189692, Final residual = 1.69018e-06, No Iterations 2
DILUPBiCG:  Solving for Uy, Initial residual = 0.00158366, Final residual = 6.87586e-07, No Iterations 2
DICPCG:  Solving for p_rgh, Initial residual = 0.0336357, Final residual = 3.33048e-05, No Iterations 89
DICPCG:  Solving for p_rgh, Initial residual = 0.0258998, Final residual = 2.5282e-05, No Iterations 109
time step continuity errors : sum local = 1.10666e-05, global = 3.17084e-07, cumulative = 4.00201e-05
DILUPBiCG:  Solving for omega, Initial residual = 0.000828532, Final residual = 1.26128e-06, No Iterations 3
DILUPBiCG:  Solving for k, Initial residual = 0.00272293, Final residual = 8.80572e-07, No Iterations 3
DICPCG:  Solving for G, Initial residual = 0.0109603, Final residual = 0.00108372, No Iterations 144
Before T+T solve
smoothSolver:  Solving for T+T, Initial residual = 7.93118e-05, Final residual = 1.75143e-08, No Iterations 5
Tres = -141.218
TsRes = 0.451213
ExecutionTime = 23.19 s



Wall heat fluxes [W]
cabHeatTransmissiveWall -6.271 -1.24809e-14 -3.1964 -9.46741
bayHeatTransmissiveWall -0.688659 -9.76025e-17 10.4418 9.7531
walls -9.0092 -8.55698e-14 9.138 0.128793
topExtWall 6.25674 -1.54869e-13 15.4835 21.7402
toSolidR -0.978674 1.76845e-13 1.13694 0.158263
cabInlet 0.000423918 -2358.34 0.286639 -2358.05
toSolidL -0.996706 -9.31209e-14 1.15421 0.157502
passengers -58.1608 1.64996e-13 -16.7103 -74.8711
bottomExtWall 13.3675 -6.51884e-14 34.5455 47.913
core2 -38.3856 -1.34164e-13 -25.9457 -64.3314
core1 -47.9661 -3.0209e-13 -29.1678 -77.1338
bayInletL 0.000502613 -2431.67 0.702202 -2430.96
bayInletR 0.000371759 -2431.67 0.761443 -2430.9
cabOutletL 0 1197.85 0.238347 1198.09
cabOutletR 0 1162.33 0.24469 1162.57
bayOutletL 0 2396.63 0.447271 2397.08
bayOutletR 0 2465.51 0.435708 2465.95
defaultFaces 0 0 0 0
sum -142.831 0.651837 -0.00411421 -142.183


Wall heat fluxes [W]
topExtWall 0.563135 0 0 0.563135
toFluidR -0.0742415 0 0 -0.0742415
toFluidL -0.075197 0 0 -0.075197
defaultFaces 0 0 0 0
sum 0.413696 0 0 0.413696

Time = 36

DILUPBiCG:  Solving for Ux, Initial residual = 0.00186746, Final residual = 1.88513e-06, No Iterations 2
DILUPBiCG:  Solving for Uy, Initial residual = 0.00156037, Final residual = 6.75662e-07, No Iterations 2
DICPCG:  Solving for p_rgh, Initial residual = 0.0330654, Final residual = 3.2948e-05, No Iterations 179
DICPCG:  Solving for p_rgh, Initial residual = 0.0255901, Final residual = 2.55648e-05, No Iterations 102
time step continuity errors : sum local = 1.13045e-05, global = -2.71154e-08, cumulative = 3.9993e-05
DILUPBiCG:  Solving for omega, Initial residual = 0.000808672, Final residual = 1.22733e-06, No Iterations 3
DILUPBiCG:  Solving for k, Initial residual = 0.00267113, Final residual = 8.47685e-07, No Iterations 3
DICPCG:  Solving for G, Initial residual = 0.0110681, Final residual = 0.00104002, No Iterations 144
Before T+T solve
smoothSolver:  Solving for T+T, Initial residual = 7.97271e-05, Final residual = 1.75915e-08, No Iterations 5
Tres = -142
TsRes = 0.441582
ExecutionTime = 23.74 s



Wall heat fluxes [W]
cabHeatTransmissiveWall -6.34841 -1.12868e-14 -3.09355 -9.44196
bayHeatTransmissiveWall -0.75151 6.93729e-15 10.4811 9.72958
walls -9.15734 1.67581e-15 9.2871 0.129766
topExtWall 6.064 -1.14765e-13 15.6942 21.7582
toSolidR -1.00378 2.79003e-14 1.16467 0.160888
cabInlet 0.000464482 -2358.34 0.294116 -2358.04
toSolidL -1.02202 -4.39988e-17 1.18229 0.160266
passengers -58.1753 1.02155e-14 -17.1328 -75.3081
bottomExtWall 13.0444 2.84762e-14 34.8954 47.9399
core2 -38.4007 3.96785e-13 -26.2361 -64.6367
core1 -47.9774 9.97983e-14 -29.4346 -77.412
bayInletL 0.000545251 -2431.67 0.717901 -2430.95
bayInletR 0.000399661 -2431.67 0.77782 -2430.89
cabOutletL 0 1197.73 0.245368 1197.98
cabOutletR 0 1162.37 0.252188 1162.63
bayOutletL 0 2396.83 0.456221 2397.29
bayOutletR 0 2465.42 0.44408 2465.87
defaultFaces 0 0 0 0
sum -143.727 0.695152 -0.00452066 -143.036


Wall heat fluxes [W]
topExtWall 0.554476 0 0 0.554476
toFluidR -0.0752911 0 0 -0.0752911
toFluidL -0.0762839 0 0 -0.0762839
defaultFaces 0 0 0 0
sum 0.402901 0 0 0.402901

Time = 37

DILUPBiCG:  Solving for Ux, Initial residual = 0.00183713, Final residual = 2.0859e-06, No Iterations 2
DILUPBiCG:  Solving for Uy, Initial residual = 0.00153539, Final residual = 6.64069e-07, No Iterations 2
DICPCG:  Solving for p_rgh, Initial residual = 0.0332311, Final residual = 3.25748e-05, No Iterations 94
DICPCG:  Solving for p_rgh, Initial residual = 0.0256071, Final residual = 2.55909e-05, No Iterations 68
time step continuity errors : sum local = 1.1419e-05, global = 1.88043e-06, cumulative = 4.18734e-05
DILUPBiCG:  Solving for omega, Initial residual = 0.000789852, Final residual = 1.17181e-06, No Iterations 3
DILUPBiCG:  Solving for k, Initial residual = 0.00262207, Final residual = 8.09092e-07, No Iterations 3
DICPCG:  Solving for G, Initial residual = 0.0110021, Final residual = 0.00108519, No Iterations 144
Before T+T solve
smoothSolver:  Solving for T+T, Initial residual = 8.01188e-05, Final residual = 1.76721e-08, No Iterations 5
Tres = -142.086
TsRes = 0.432441
ExecutionTime = 24.19 s



Wall heat fluxes [W]
cabHeatTransmissiveWall -6.42827 -8.79322e-15 -2.98506 -9.41333
bayHeatTransmissiveWall -0.814362 4.24596e-15 10.5194 9.70502
walls -9.30451 -1.65008e-14 9.43389 0.129379
topExtWall 5.87093 3.31325e-14 15.9069 21.7778
toSolidR -1.02942 -1.86489e-14 1.1933 0.163884
cabInlet 0.000505656 -2358.34 0.301761 -2358.03
toSolidL -1.04787 -9.1213e-15 1.21096 0.163091
passengers -58.1893 -3.62107e-13 -17.5644 -75.7537
bottomExtWall 12.7278 9.59428e-14 35.2405 47.9683
core2 -38.4114 -1.87234e-12 -26.5209 -64.9323
core1 -47.9896 9.3524e-13 -29.699 -77.6887
bayInletL 0.000590223 -2431.67 0.733494 -2430.93
bayInletR 0.00042845 -2431.67 0.794084 -2430.87
cabOutletL 0 1197.76 0.252565 1198.01
cabOutletR 0 1162.61 0.259878 1162.87
bayOutletL 0 2397.21 0.465131 2397.68
bayOutletR 0 2465.51 0.452354 2465.96
defaultFaces 0 0 0 0
sum -144.614 1.42594 -0.00527315 -143.194


Wall heat fluxes [W]
topExtWall 0.546293 0 0 0.546293
toFluidR -0.0763454 0 0 -0.0763454
toFluidL -0.0773697 0 0 -0.0773697
defaultFaces 0 0 0 0
sum 0.392577 0 0 0.392577

Time = 38

DILUPBiCG:  Solving for Ux, Initial residual = 0.00181089, Final residual = 2.05145e-06, No Iterations 2
DILUPBiCG:  Solving for Uy, Initial residual = 0.00151129, Final residual = 6.54146e-07, No Iterations 2
DICPCG:  Solving for p_rgh, Initial residual = 0.0331465, Final residual = 3.28157e-05, No Iterations 171
DICPCG:  Solving for p_rgh, Initial residual = 0.0253251, Final residual = 2.43947e-05, No Iterations 89
time step continuity errors : sum local = 1.09761e-05, global = -6.60356e-07, cumulative = 4.1213e-05
DILUPBiCG:  Solving for omega, Initial residual = 0.000772123, Final residual = 1.11912e-06, No Iterations 3
DILUPBiCG:  Solving for k, Initial residual = 0.00257585, Final residual = 7.68308e-07, No Iterations 3
DICPCG:  Solving for G, Initial residual = 0.0109856, Final residual = 0.00103991, No Iterations 144
Before T+T solve
smoothSolver:  Solving for T+T, Initial residual = 8.05132e-05, Final residual = 1.77505e-08, No Iterations 5
Tres = -143.485
TsRes = 0.423766
ExecutionTime = 24.73 s
[...]
ExecutionTime = 1131.57 s



Wall heat fluxes [W]
cabHeatTransmissiveWall -25.6664 -1.47047e-14 -0.282132 -25.9486
bayHeatTransmissiveWall -18.7062 7.78012e-14 44.7093 26.0032
walls -31.1548 -1.55673e-13 31.2129 0.0581285
topExtWall 0.708602 7.66782e-13 30.694 31.4026
toSolidR -3.01106 -1.168e-13 3.18075 0.169693
cabInlet 0.0243569 -2358.34 2.00728 -2356.3
toSolidL -2.6678 -1.03403e-12 2.82527 0.157464
passengers -58.9005 2.47663e-12 -42.3098 -101.21
bottomExtWall -25.1735 2.44215e-12 98.8912 73.7177
core2 -38.7174 1.4935e-12 -56.3674 -95.0848
core1 -48.3654 3.04663e-12 -141.032 -189.398
bayInletL 0.0348202 -2431.67 7.80122 -2423.83
bayInletR 0.0264967 -2431.67 9.12687 -2422.51
cabOutletL 0 1247.7 1.1262 1248.83
cabOutletR 0 1186.83 1.27748 1188.11
bayOutletL 0.147771 2717.06 3.47708 2720.69
bayOutletR 0.106081 2302.95 3.63109 2306.69
defaultFaces 0 0 0 0
sum -251.315 232.884 -0.0310285 -18.4624


Wall heat fluxes [W]
topExtWall 0.31498 0 0 0.31498
toFluidR -0.161287 0 0 -0.161287
toFluidL -0.16128 0 0 -0.16128
defaultFaces 0 0 0 0
sum -0.00758708 0 0 -0.00758708

Time = 1992

DILUPBiCG:  Solving for Ux, Initial residual = 0.00104215, Final residual = 3.03796e-06, No Iterations 2
DILUPBiCG:  Solving for Uy, Initial residual = 0.000788903, Final residual = 1.19236e-06, No Iterations 2
DICPCG:  Solving for p_rgh, Initial residual = 0.0422182, Final residual = 4.21072e-05, No Iterations 77
DICPCG:  Solving for p_rgh, Initial residual = 0.00858986, Final residual = 8.47582e-06, No Iterations 241
time step continuity errors : sum local = 1.27831e-05, global = 5.90375e-08, cumulative = 0.000103948
DILUPBiCG:  Solving for omega, Initial residual = 0.000415668, Final residual = 1.78381e-06, No Iterations 3
DILUPBiCG:  Solving for k, Initial residual = 0.000824482, Final residual = 6.96858e-06, No Iterations 2
DICPCG:  Solving for G, Initial residual = 0.00351946, Final residual = 0.000338412, No Iterations 100
Before T+T solve
smoothSolver:  Solving for T+T, Initial residual = 0.000747103, Final residual = 5.51281e-07, No Iterations 4
Tres = 0.982533
TsRes = 0.13503
ExecutionTime = 1132.1 s



Wall heat fluxes [W]
cabHeatTransmissiveWall -25.6698 -8.61582e-15 -0.294097 -25.9639
bayHeatTransmissiveWall -18.7097 -3.35243e-14 44.6995 25.9898
walls -31.1723 -6.96301e-13 31.1751 0.00277807
topExtWall 0.711935 -9.6208e-13 30.7041 31.416
toSolidR -3.01313 2.35025e-13 3.18366 0.170529
cabInlet 0.0243904 -2358.34 2.0079 -2356.3
toSolidL -2.67357 -9.57482e-13 2.83016 0.156592
passengers -58.8824 1.199e-12 -42.3203 -101.203
bottomExtWall -25.1763 2.50846e-12 98.8146 73.6384
core2 -38.6401 -1.06114e-12 -56.4123 -95.0524
core1 -48.3576 -6.54669e-13 -140.87 -189.227
bayInletL 0.034817 -2431.67 7.80497 -2423.83
bayInletR 0.0264744 -2431.67 9.13036 -2422.51
cabOutletL 0 1248.98 1.12524 1250.11
cabOutletR 0 1185.45 1.28003 1186.73
bayOutletL 0.1475 2716.2 3.47885 2719.83
bayOutletR 0.106074 2303.63 3.6309 2307.36
defaultFaces 0 0 0 0
sum -251.244 232.599 -0.031152 -18.6758


Wall heat fluxes [W]
topExtWall 0.314993 0 0 0.314993
toFluidR -0.161335 0 0 -0.161335
toFluidL -0.161167 0 0 -0.161167
defaultFaces 0 0 0 0
sum -0.00750824 0 0 -0.00750824

Time = 1993

DILUPBiCG:  Solving for Ux, Initial residual = 0.00101459, Final residual = 1.33486e-06, No Iterations 2
DILUPBiCG:  Solving for Uy, Initial residual = 0.000750955, Final residual = 4.31623e-08, No Iterations 3
DICPCG:  Solving for p_rgh, Initial residual = 0.0438274, Final residual = 4.30724e-05, No Iterations 97
DICPCG:  Solving for p_rgh, Initial residual = 0.0110324, Final residual = 1.06004e-05, No Iterations 301
time step continuity errors : sum local = 1.59655e-05, global = 8.87127e-08, cumulative = 0.000104036
DILUPBiCG:  Solving for omega, Initial residual = 0.00042902, Final residual = 1.24212e-06, No Iterations 3
DILUPBiCG:  Solving for k, Initial residual = 0.000828096, Final residual = 7.12279e-06, No Iterations 2
DICPCG:  Solving for G, Initial residual = 0.00305082, Final residual = 0.000297627, No Iterations 98
Before T+T solve
smoothSolver:  Solving for T+T, Initial residual = 0.000742837, Final residual = 5.50387e-07, No Iterations 4
Tres = 0.841385
TsRes = 0.136566
ExecutionTime = 1132.7 s



Wall heat fluxes [W]
cabHeatTransmissiveWall -25.6727 -8.63348e-15 -0.295496 -25.9682
bayHeatTransmissiveWall -18.7111 -6.29216e-14 44.7 25.9889
walls -31.192 -3.97152e-13 31.2063 0.0142938
topExtWall 0.722135 8.74008e-14 30.6884 31.4105
toSolidR -3.01288 -7.63847e-13 3.18205 0.169177
cabInlet 0.0244482 -2358.34 2.00831 -2356.3
toSolidL -2.68622 -5.66291e-13 2.83495 0.148733
passengers -58.8696 -1.07069e-12 -42.3269 -101.196
bottomExtWall -25.1977 -2.44753e-13 98.8498 73.6521
core2 -38.7482 -5.92756e-13 -56.2168 -94.965
core1 -48.3562 1.93036e-12 -141.143 -189.499
bayInletL 0.0348133 -2431.67 7.80589 -2423.82
bayInletR 0.0264797 -2431.67 9.13298 -2422.51
cabOutletL 0 1250.56 1.12411 1251.68
cabOutletR 0 1183.7 1.28236 1184.98
bayOutletL 0.147246 2715.67 3.47845 2719.29
bayOutletR 0.106099 2304.34 3.63301 2308.08
defaultFaces 0 0 0 0
sum -251.385 232.598 -0.0557963 -18.8434


Wall heat fluxes [W]
topExtWall 0.314998 0 0 0.314998
toFluidR -0.161308 0 0 -0.161308
toFluidL -0.161143 0 0 -0.161143
defaultFaces 0 0 0 0
sum -0.00745304 0 0 -0.00745304

Time = 1994

DILUPBiCG:  Solving for Ux, Initial residual = 0.00100195, Final residual = 1.60728e-06, No Iterations 2
DILUPBiCG:  Solving for Uy, Initial residual = 0.000732317, Final residual = 8.24306e-07, No Iterations 2
DICPCG:  Solving for p_rgh, Initial residual = 0.038133, Final residual = 3.57291e-05, No Iterations 71
DICPCG:  Solving for p_rgh, Initial residual = 0.00868433, Final residual = 8.57137e-06, No Iterations 292
time step continuity errors : sum local = 1.27848e-05, global = 1.80602e-08, cumulative = 0.000104054
DILUPBiCG:  Solving for omega, Initial residual = 0.000416182, Final residual = 3.56641e-06, No Iterations 2
DILUPBiCG:  Solving for k, Initial residual = 0.000828714, Final residual = 7.26223e-06, No Iterations 2
DICPCG:  Solving for G, Initial residual = 0.00260715, Final residual = 0.000258377, No Iterations 109
Before T+T solve
smoothSolver:  Solving for T+T, Initial residual = 0.000732198, Final residual = 5.47952e-07, No Iterations 4
Tres = 0.814166
TsRes = 0.136671
ExecutionTime = 1133.3 s



Wall heat fluxes [W]
cabHeatTransmissiveWall -25.6799 2.45557e-14 -0.292823 -25.9727
bayHeatTransmissiveWall -18.7185 -2.53032e-14 44.7296 26.0111
walls -31.2187 4.69084e-13 31.2388 0.0201083
topExtWall 0.729328 4.52554e-13 30.6849 31.4142
toSolidR -3.01283 2.34583e-13 3.18467 0.171841
cabInlet 0.0245683 -2358.34 2.00905 -2356.3
toSolidL -2.69897 1.09384e-12 2.84543 0.146456
passengers -58.8565 -1.86488e-13 -42.3375 -101.194
bottomExtWall -25.2224 1.67993e-12 98.9063 73.6839
core2 -38.6972 2.76272e-12 -56.2091 -94.9064
core1 -48.3507 -2.29844e-13 -141.263 -189.614
bayInletL 0.0348123 -2431.67 7.80755 -2423.82
bayInletR 0.0264551 -2431.67 9.13709 -2422.5
cabOutletL 0 1252.03 1.12263 1253.15
cabOutletR 0 1182.25 1.28458 1183.53
bayOutletL 0.146995 2714.91 3.47972 2718.53
bayOutletR 0.106135 2305.05 3.63527 2308.79
defaultFaces 0 0 0 0
sum -251.387 232.571 -0.0370805 -18.8539


Wall heat fluxes [W]
topExtWall 0.315011 0 0 0.315011
toFluidR -0.161332 0 0 -0.161332
toFluidL -0.161138 0 0 -0.161138
defaultFaces 0 0 0 0
sum -0.00745912 0 0 -0.00745912

Time = 1995

DILUPBiCG:  Solving for Ux, Initial residual = 0.000987717, Final residual = 1.15718e-06, No Iterations 2
DILUPBiCG:  Solving for Uy, Initial residual = 0.00072523, Final residual = 8.65367e-07, No Iterations 2
DICPCG:  Solving for p_rgh, Initial residual = 0.0390337, Final residual = 3.85599e-05, No Iterations 157
DICPCG:  Solving for p_rgh, Initial residual = 0.00958646, Final residual = 9.28444e-06, No Iterations 197
time step continuity errors : sum local = 1.41577e-05, global = 9.06394e-07, cumulative = 0.000104961
DILUPBiCG:  Solving for omega, Initial residual = 0.000409218, Final residual = 8.58235e-07, No Iterations 3
DILUPBiCG:  Solving for k, Initial residual = 0.000828908, Final residual = 7.03618e-06, No Iterations 2
DICPCG:  Solving for G, Initial residual = 0.00229225, Final residual = 0.000223974, No Iterations 104
Before T+T solve
smoothSolver:  Solving for T+T, Initial residual = 0.000737172, Final residual = 5.44855e-07, No Iterations 4
Tres = 1.02969
TsRes = 0.131664
ExecutionTime = 1133.87 s



Wall heat fluxes [W]
cabHeatTransmissiveWall -25.6824 2.82927e-14 -0.295415 -25.9778
bayHeatTransmissiveWall -18.7154 -3.73166e-14 44.7049 25.9895
walls -31.2217 1.2622e-12 31.225 0.00336743
topExtWall 0.730838 1.08141e-12 30.6882 31.419
toSolidR -3.014 4.1189e-13 3.18914 0.175144
cabInlet 0.0247088 -2358.34 2.00981 -2356.3
toSolidL -2.71299 -8.98445e-13 2.85669 0.143698
passengers -58.8505 1.48767e-12 -42.372 -101.222
bottomExtWall -25.2112 1.28286e-12 98.8684 73.6572
core2 -38.7024 -2.2549e-12 -56.1342 -94.8366
core1 -48.3981 5.98116e-12 -141.249 -189.647
bayInletL 0.0348115 -2431.67 7.80807 -2423.82
bayInletR 0.0264923 -2431.67 9.13863 -2422.5
cabOutletL 0 1253.4 1.12154 1254.52
cabOutletR 0 1181.02 1.28657 1182.3
bayOutletL 0.146747 2714.25 3.48036 2717.88
bayOutletR 0.106168 2305.84 3.63505 2309.59
defaultFaces 0 0 0 0
sum -251.439 232.844 -0.0382966 -18.633


Wall heat fluxes [W]
topExtWall 0.315007 0 0 0.315007
toFluidR -0.161433 0 0 -0.161433
toFluidL -0.16101 0 0 -0.16101
defaultFaces 0 0 0 0
sum -0.00743624 0 0 -0.00743624

Time = 1996

DILUPBiCG:  Solving for Ux, Initial residual = 0.000973344, Final residual = 1.15935e-06, No Iterations 2
DILUPBiCG:  Solving for Uy, Initial residual = 0.000742582, Final residual = 3.55679e-06, No Iterations 2
DICPCG:  Solving for p_rgh, Initial residual = 0.0399396, Final residual = 3.93942e-05, No Iterations 107
DICPCG:  Solving for p_rgh, Initial residual = 0.0115118, Final residual = 1.12935e-05, No Iterations 202
time step continuity errors : sum local = 1.71837e-05, global = 9.28307e-07, cumulative = 0.000105889
DILUPBiCG:  Solving for omega, Initial residual = 0.000416751, Final residual = 4.01627e-06, No Iterations 2
DILUPBiCG:  Solving for k, Initial residual = 0.000831573, Final residual = 6.9594e-06, No Iterations 2
DICPCG:  Solving for G, Initial residual = 0.00237362, Final residual = 0.00023225, No Iterations 116
Before T+T solve
smoothSolver:  Solving for T+T, Initial residual = 0.000743018, Final residual = 5.467e-07, No Iterations 4
Tres = 1.03154
TsRes = 0.131756
ExecutionTime = 1134.43 s



Wall heat fluxes [W]
cabHeatTransmissiveWall -25.6895 1.89886e-14 -0.277047 -25.9665
bayHeatTransmissiveWall -18.7138 -2.20336e-14 44.6963 25.9825
walls -31.2209 6.6229e-13 31.2137 -0.00719893
topExtWall 0.724497 1.28182e-12 30.7083 31.4328
toSolidR -3.01703 2.55214e-13 3.19896 0.181927
cabInlet 0.0248432 -2358.34 2.01104 -2356.3
toSolidL -2.7235 6.06352e-13 2.87804 0.154545
passengers -58.8584 -7.57256e-13 -42.4371 -101.295
bottomExtWall -25.2012 4.15604e-13 98.8196 73.6184
core2 -38.6845 -2.00861e-12 -55.932 -94.6164
core1 -48.3902 1.95637e-12 -141.346 -189.736
bayInletL 0.0348106 -2431.67 7.80729 -2423.82
bayInletR 0.0264737 -2431.67 9.13891 -2422.5
cabOutletL 0 1254.73 1.12038 1255.85
cabOutletR 0 1179.97 1.28904 1181.26
bayOutletL 0.146462 2713.56 3.47796 2717.18
bayOutletR 0.106119 2306.26 3.63436 2310
defaultFaces 0 0 0 0
sum -251.436 232.853 0.00158279 -18.5814


Wall heat fluxes [W]
topExtWall 0.315017 0 0 0.315017
toFluidR -0.161647 0 0 -0.161647
toFluidL -0.161006 0 0 -0.161006
defaultFaces 0 0 0 0
sum -0.00763574 0 0 -0.00763574

Time = 1997

DILUPBiCG:  Solving for Ux, Initial residual = 0.000965282, Final residual = 1.86742e-06, No Iterations 2
DILUPBiCG:  Solving for Uy, Initial residual = 0.000723802, Final residual = 1.81822e-06, No Iterations 2
DICPCG:  Solving for p_rgh, Initial residual = 0.0369553, Final residual = 3.65022e-05, No Iterations 75
DICPCG:  Solving for p_rgh, Initial residual = 0.00814473, Final residual = 7.97966e-06, No Iterations 316
time step continuity errors : sum local = 1.22546e-05, global = 1.01511e-07, cumulative = 0.000105991
DILUPBiCG:  Solving for omega, Initial residual = 0.000401978, Final residual = 3.18522e-06, No Iterations 2
DILUPBiCG:  Solving for k, Initial residual = 0.000831227, Final residual = 6.75373e-06, No Iterations 2
DICPCG:  Solving for G, Initial residual = 0.00257678, Final residual = 0.000253826, No Iterations 123
Before T+T solve
smoothSolver:  Solving for T+T, Initial residual = 0.000734776, Final residual = 5.43099e-07, No Iterations 4
Tres = 0.549261
TsRes = 0.132289
ExecutionTime = 1135.06 s



Wall heat fluxes [W]
cabHeatTransmissiveWall -25.7017 5.60408e-15 -0.258714 -25.9604
bayHeatTransmissiveWall -18.7218 -6.57235e-14 44.7184 25.9966
walls -31.2462 9.15701e-13 31.2755 0.0292931
topExtWall 0.717527 -2.60212e-13 30.7303 31.4479
toSolidR -3.02154 1.36424e-13 3.20937 0.187826
cabInlet 0.0249945 -2358.34 2.01273 -2356.3
toSolidL -2.73626 1.55746e-13 2.89727 0.161011
passengers -58.8648 -8.62901e-13 -42.5064 -101.371
bottomExtWall -25.2232 -1.69192e-12 98.9202 73.6971
core2 -38.8124 -4.74281e-13 -55.9606 -94.773
core1 -48.4045 2.35998e-12 -141.542 -189.947
bayInletL 0.0348069 -2431.67 7.80864 -2423.82
bayInletR 0.0264538 -2431.67 9.14126 -2422.5
cabOutletL 0 1255.7 1.119 1256.82
cabOutletR 0 1178.58 1.29223 1179.88
bayOutletL 0.146236 2713.04 3.4796 2716.67
bayOutletR 0.106163 2306.95 3.63713 2310.69
defaultFaces 0 0 0 0
sum -251.676 232.611 -0.0264897 -19.0919


Wall heat fluxes [W]
topExtWall 0.31503 0 0 0.31503
toFluidR -0.161936 0 0 -0.161936
toFluidL -0.161088 0 0 -0.161088
defaultFaces 0 0 0 0
sum -0.00799347 0 0 -0.00799347

Time = 1998

DILUPBiCG:  Solving for Ux, Initial residual = 0.00101674, Final residual = 1.29631e-06, No Iterations 2
DILUPBiCG:  Solving for Uy, Initial residual = 0.00073087, Final residual = 8.15772e-07, No Iterations 2
DICPCG:  Solving for p_rgh, Initial residual = 0.0326552, Final residual = 3.21575e-05, No Iterations 131
DICPCG:  Solving for p_rgh, Initial residual = 0.00812573, Final residual = 7.95912e-06, No Iterations 166
time step continuity errors : sum local = 1.21607e-05, global = -3.88271e-07, cumulative = 0.000105602
DILUPBiCG:  Solving for omega, Initial residual = 0.000389277, Final residual = 1.93216e-06, No Iterations 3
DILUPBiCG:  Solving for k, Initial residual = 0.000833429, Final residual = 6.96449e-06, No Iterations 2
DICPCG:  Solving for G, Initial residual = 0.00280662, Final residual = 0.000276545, No Iterations 115
Before T+T solve
smoothSolver:  Solving for T+T, Initial residual = 0.000718729, Final residual = 5.44394e-07, No Iterations 4
Tres = 0.426821
TsRes = 0.132645
ExecutionTime = 1135.58 s



Wall heat fluxes [W]
cabHeatTransmissiveWall -25.7099 1.52883e-14 -0.251045 -25.961
bayHeatTransmissiveWall -18.7224 9.22717e-15 44.7011 25.9788
walls -31.2459 -1.79188e-13 31.2501 0.00420102
topExtWall 0.710289 1.80068e-13 30.7454 31.4557
toSolidR -3.02638 -1.76863e-13 3.21711 0.190726
cabInlet 0.0251752 -2358.34 2.01467 -2356.3
toSolidL -2.75156 -8.02005e-13 2.91334 0.161775
passengers -58.8616 1.20481e-12 -42.5463 -101.408
bottomExtWall -25.2294 1.50414e-12 98.8612 73.6319
core2 -38.7672 -3.7065e-12 -55.9513 -94.7185
core1 -48.3918 -6.6787e-13 -141.446 -189.838
bayInletL 0.0348054 -2431.67 7.80993 -2423.82
bayInletR 0.0264605 -2431.67 9.14225 -2422.5
cabOutletL 0 1256.86 1.11779 1257.98
cabOutletR 0 1177.53 1.29531 1178.83
bayOutletL 0.146027 2712.51 3.4805 2716.14
bayOutletR 0.106146 2307.24 3.63727 2310.98
defaultFaces 0 0 0 0
sum -251.657 232.473 -0.0085857 -19.1924


Wall heat fluxes [W]
topExtWall 0.315037 0 0 0.315037
toFluidR -0.162227 0 0 -0.162227
toFluidL -0.161195 0 0 -0.161195
defaultFaces 0 0 0 0
sum -0.00838517 0 0 -0.00838517

Time = 1999

DILUPBiCG:  Solving for Ux, Initial residual = 0.000999242, Final residual = 1.41617e-06, No Iterations 2
DILUPBiCG:  Solving for Uy, Initial residual = 0.000716218, Final residual = 5.77802e-06, No Iterations 2
DICPCG:  Solving for p_rgh, Initial residual = 0.037364, Final residual = 3.60536e-05, No Iterations 98
DICPCG:  Solving for p_rgh, Initial residual = 0.00880213, Final residual = 8.61633e-06, No Iterations 309
time step continuity errors : sum local = 1.30064e-05, global = 7.27647e-08, cumulative = 0.000105675
DILUPBiCG:  Solving for omega, Initial residual = 0.000422617, Final residual = 3.63122e-06, No Iterations 2
DILUPBiCG:  Solving for k, Initial residual = 0.000838063, Final residual = 7.23433e-06, No Iterations 2
DICPCG:  Solving for G, Initial residual = 0.00259198, Final residual = 0.000246285, No Iterations 134
Before T+T solve
smoothSolver:  Solving for T+T, Initial residual = 0.000733756, Final residual = 5.45022e-07, No Iterations 4
Tres = 0.771792
TsRes = 0.133275
ExecutionTime = 1136.23 s



Wall heat fluxes [W]
cabHeatTransmissiveWall -25.7094 -6.77315e-15 -0.234534 -25.9439
bayHeatTransmissiveWall -18.6993 2.53901e-14 44.6068 25.9075
walls -31.2112 1.19615e-12 31.1457 -0.0654911
topExtWall 0.707207 -4.46506e-13 30.7521 31.4593
toSolidR -3.03037 5.27728e-13 3.22104 0.190671
cabInlet 0.0253756 -2358.34 2.01647 -2356.29
toSolidL -2.76813 2.14935e-13 2.92615 0.158023
passengers -58.8579 -3.00392e-12 -42.5808 -101.439
bottomExtWall -25.1814 -1.09322e-12 98.7561 73.5747
core2 -38.6608 -2.15351e-12 -55.7865 -94.4473
core1 -48.3801 6.5064e-12 -141.268 -189.648
bayInletL 0.034809 -2431.67 7.80394 -2423.83
bayInletR 0.0264606 -2431.67 9.13815 -2422.5
cabOutletL 0 1257.86 1.1163 1258.98
cabOutletR 0 1176.48 1.29809 1177.78
bayOutletL 0.1458 2712.17 3.47759 2715.79
bayOutletR 0.106151 2307.79 3.63235 2311.53
defaultFaces 0 0 0 0
sum -251.453 232.637 0.0208664 -18.7948


Wall heat fluxes [W]
topExtWall 0.315059 0 0 0.315059
toFluidR -0.162461 0 0 -0.162461
toFluidL -0.161296 0 0 -0.161296
defaultFaces 0 0 0 0
sum -0.0086988 0 0 -0.0086988

Time = 2000

DILUPBiCG:  Solving for Ux, Initial residual = 0.00101285, Final residual = 1.91656e-06, No Iterations 2
DILUPBiCG:  Solving for Uy, Initial residual = 0.000762646, Final residual = 1.67826e-06, No Iterations 2
DICPCG:  Solving for p_rgh, Initial residual = 0.0395649, Final residual = 3.94576e-05, No Iterations 162
DICPCG:  Solving for p_rgh, Initial residual = 0.00970632, Final residual = 9.12392e-06, No Iterations 112
time step continuity errors : sum local = 1.38024e-05, global = 1.38846e-06, cumulative = 0.000107064
DILUPBiCG:  Solving for omega, Initial residual = 0.000418144, Final residual = 3.1557e-06, No Iterations 2
DILUPBiCG:  Solving for k, Initial residual = 0.000836605, Final residual = 6.61421e-06, No Iterations 2
DICPCG:  Solving for G, Initial residual = 0.00345822, Final residual = 0.000341326, No Iterations 111
Before T+T solve
smoothSolver:  Solving for T+T, Initial residual = 0.000725479, Final residual = 5.43882e-07, No Iterations 4
Tres = 1.12135
TsRes = 0.133531
ExecutionTime = 1137 s



Wall heat fluxes [W]
cabHeatTransmissiveWall -25.7149 1.2203e-14 -0.205856 -25.9208
bayHeatTransmissiveWall -18.6908 1.23114e-14 44.6074 25.9166
walls -31.2139 -6.2789e-13 31.2002 -0.0136534
topExtWall 0.703211 9.03842e-13 30.766 31.4692
toSolidR -3.03392 3.53361e-13 3.22287 0.188952
cabInlet 0.025585 -2358.34 2.01802 -2356.29
toSolidL -2.78419 -3.14033e-13 2.93649 0.152308
passengers -58.8726 1.14577e-12 -42.6386 -101.511
bottomExtWall -25.1808 -1.6905e-12 98.7734 73.5926
core2 -38.7016 3.73559e-12 -55.6517 -94.3533
core1 -48.3784 -1.23938e-12 -141.451 -189.829
bayInletL 0.0348102 -2431.67 7.79892 -2423.83
bayInletR 0.0264451 -2431.67 9.13478 -2422.5
cabOutletL 0 1258.76 1.11505 1259.88
cabOutletR 0 1175.88 1.30061 1177.18
bayOutletL 0.145552 2711.56 3.4763 2715.18
bayOutletR 0.10622 2308.54 3.63184 2312.28
defaultFaces 0 0 0 0
sum -251.529 233.072 0.0349994 -18.4227


Wall heat fluxes [W]
topExtWall 0.315085 0 0 0.315085
toFluidR -0.162645 0 0 -0.162645
toFluidL -0.161325 0 0 -0.161325
defaultFaces 0 0 0 0
sum -0.00888493 0 0 -0.00888493

End

