/*---------------------------------------------------------------------------*\
| =========                 |                                                 |
| \\      /  F ield         | OpenFOAM Extend Project: Open source CFD        |
|  \\    /   O peration     | Version:  1.6-ext                               |
|   \\  /    A nd           | Web:      www.extend-project.de                 |
|    \\/     M anipulation  |                                                 |
\*---------------------------------------------------------------------------*/
Build  : 1.6-ext-daa8fb2a98e6
Exec   : chipAirCoolingSimpleFoam
Date   : Nov 29 2011
Time   : 22:11:38
Host   : ubuntu
PID    : 32501
Case   : /home/user/ChipAirCoolingClient/run/tutorial1
nProcs : 1
SigFpe : Enabling floating point exception trapping (FOAM_SIGFPE).

// * * * * * * * * * * * * * * * * * * * * * * * * * * * * * * * * * * * * * //
Create time

Create mesh for time = 0


Reading g
Reading transportProperties

Calculating field g.h

Reading field p_rgh

Reading field U

Reading field T

Reading/calculating face flux field phi

Selecting incompressible transport model Newtonian
Selecting RAS turbulence model kEpsilon
kEpsilonCoeffs
{
    Cmu             0.09;
    C1              1.44;
    C2              1.92;
    alphaEps        0.76923;
    sigmaEps        1.3;
}

Reading field kappaEff

Creating radiation model

Selecting radiationModel P1
Selecting absorptionEmissionModel constantAbsorptionEmission
Selecting scatterModel constantScatter
Reading field Tsolid

Reading solid thermal properties
Selecting thermal model multiMaterialZones
Selecting thermal model constant
Selecting thermal model constant
Selecting thermal gap model constant
Reading solid diffusivity k


Starting time loop

--> FOAM Warning : 
    From function dlLibraryTable::open(const dictionary& dict, const word& libsEntry, const TablePtr tablePtr)
    in file lnInclude/dlLibraryTableTemplates.C at line 68
    library "libairbusMaterialModels.so" did not introduce any new entries

Time = 1

DILUPBiCG:  Solving for Ux, Initial residual = 1, Final residual = 9.72759e-05, No Iterations 2
DILUPBiCG:  Solving for Uy, Initial residual = 1, Final residual = 0.000174731, No Iterations 2
DICPCG:  Solving for p_rgh, Initial residual = 1, Final residual = 0.00985949, No Iterations 5
time step continuity errors : sum local = 0.00481111, global = 2.0845e-18, cumulative = 2.0845e-18
DILUPBiCG:  Solving for epsilon, Initial residual = 0.0778063, Final residual = 0.000142604, No Iterations 2
DILUPBiCG:  Solving for k, Initial residual = 1, Final residual = 0.00249972, No Iterations 2
DICPCG:  Solving for G, Initial residual = 1, Final residual = 0.0255384, No Iterations 11
Before T+T solve
BiCG:  Solving for T+T, Initial residual = 0.308435, Final residual = 0.0281135, No Iterations 3
Tres = -0.540023
TsRes = -17.8721
ExecutionTime = 0.02 s



Wall heat fluxes [W]
movingWall 0.00240573 0 8.04921e-07 0.00240654
left 6.23956e-07 0 -1.20093e-06 -5.76976e-07
right -0.547752 0 8.04921e-07 -0.547751
bottom 0.00499544 0 -1.20093e-06 0.00499424
frontAndBack 0 0 0 0
sum -0.54035 0 -7.92022e-07 -0.540351


Wall heat fluxes [W]
topAndBottom 0 0 0 0
left -1.18454 0 0 -1.18454
right -18.4198 0 0 -18.4198
frontAndBack 0 0 0 0
sum -19.6044 0 0 -19.6044

Time = 2

DILUPBiCG:  Solving for Ux, Initial residual = 0.887661, Final residual = 9.21446e-05, No Iterations 2
DILUPBiCG:  Solving for Uy, Initial residual = 0.823447, Final residual = 0.00720966, No Iterations 1
DICPCG:  Solving for p_rgh, Initial residual = 0.89121, Final residual = 0.00653402, No Iterations 6
time step continuity errors : sum local = 0.021851, global = -2.48816e-17, cumulative = -2.27971e-17
DILUPBiCG:  Solving for epsilon, Initial residual = 0.0241552, Final residual = 3.05245e-05, No Iterations 2
DILUPBiCG:  Solving for k, Initial residual = 0.650788, Final residual = 0.000809506, No Iterations 2
DICPCG:  Solving for G, Initial residual = 0.995184, Final residual = 0.0327225, No Iterations 13
Before T+T solve
BiCG:  Solving for T+T, Initial residual = 0.0324825, Final residual = 0.00240269, No Iterations 5
Tres = -1.09064
TsRes = -5.44172
ExecutionTime = 0.02 s



Wall heat fluxes [W]
movingWall -0.271237 9.66511e-18 0.381509 0.110272
left 0.0100937 -4.16797e-21 0.382643 0.392737
right -0.49953 -7.53886e-16 -1.14018 -1.63971
bottom -0.247541 0 0.376033 0.128492
frontAndBack 0 0 0 0
sum -1.00821 -7.44225e-16 3.82814e-06 -1.00821


Wall heat fluxes [W]
topAndBottom 0 0 0 0
left 29.1689 0 0 29.1689
right -7.22257 0 0 -7.22257
frontAndBack 0 0 0 0
sum 21.9463 0 0 21.9463

Time = 3

DILUPBiCG:  Solving for Ux, Initial residual = 0.348147, Final residual = 2.42162e-05, No Iterations 2
DILUPBiCG:  Solving for Uy, Initial residual = 0.558177, Final residual = 0.00458244, No Iterations 1
DICPCG:  Solving for p_rgh, Initial residual = 0.47338, Final residual = 0.00233254, No Iterations 6
time step continuity errors : sum local = 0.0077183, global = 2.29361e-16, cumulative = 2.06564e-16
DILUPBiCG:  Solving for epsilon, Initial residual = 0.0758101, Final residual = 4.2622e-05, No Iterations 2
DILUPBiCG:  Solving for k, Initial residual = 0.217868, Final residual = 0.000285948, No Iterations 2
DICPCG:  Solving for G, Initial residual = 0.151262, Final residual = 0.00591952, No Iterations 11
Before T+T solve
BiCG:  Solving for T+T, Initial residual = 0.00817884, Final residual = 0.000600861, No Iterations 5
Tres = -1.06678
TsRes = -3.15612
ExecutionTime = 0.03 s



Wall heat fluxes [W]
movingWall -0.256383 3.65243e-15 0.265636 0.00925273
left 0.0142978 -5.25371e-17 0.517366 0.531663
right -0.54373 6.2599e-15 -0.996134 -1.53986
bottom -0.20851 0 0.213126 0.00461587
frontAndBack 0 0 0 0
sum -0.994324 9.85979e-15 -7.65546e-06 -0.994332


Wall heat fluxes [W]
topAndBottom 0 0 0 0
left 25.9466 0 0 25.9466
right -4.99504 0 0 -4.99504
frontAndBack 0 0 0 0
sum 20.9516 0 0 20.9516

Time = 4

DILUPBiCG:  Solving for Ux, Initial residual = 0.162175, Final residual = 1.29141e-05, No Iterations 2
DILUPBiCG:  Solving for Uy, Initial residual = 0.295988, Final residual = 0.00258955, No Iterations 1
DICPCG:  Solving for p_rgh, Initial residual = 0.168983, Final residual = 0.00157878, No Iterations 6
time step continuity errors : sum local = 0.00629541, global = 5.72409e-17, cumulative = 2.63804e-16
DILUPBiCG:  Solving for epsilon, Initial residual = 0.117258, Final residual = 9.77039e-05, No Iterations 2
DILUPBiCG:  Solving for k, Initial residual = 0.130884, Final residual = 0.000168869, No Iterations 2
DICPCG:  Solving for G, Initial residual = 0.0908773, Final residual = 0.00296366, No Iterations 13
Before T+T solve
BiCG:  Solving for T+T, Initial residual = 0.00506886, Final residual = 0.000239716, No Iterations 5
Tres = -1.17788
TsRes = -1.97254
ExecutionTime = 0.03 s



Wall heat fluxes [W]
movingWall -0.302756 -3.10318e-15 0.33742 0.0346639
left 0.0191936 -1.60423e-16 0.606951 0.626144
right -0.585863 7.25994e-15 -1.23868 -1.82454
bottom -0.257416 0 0.294309 0.0368933
frontAndBack 0 0 0 0
sum -1.12684 3.99633e-15 3.41666e-07 -1.12684


Wall heat fluxes [W]
topAndBottom 0 0 0 0
left 19.0645 0 0 19.0645
right -4.05116 0 0 -4.05116
frontAndBack 0 0 0 0
sum 15.0133 0 0 15.0133

Time = 5

DILUPBiCG:  Solving for Ux, Initial residual = 0.134149, Final residual = 0.00128654, No Iterations 1
DILUPBiCG:  Solving for Uy, Initial residual = 0.198006, Final residual = 0.00164061, No Iterations 1
DICPCG:  Solving for p_rgh, Initial residual = 0.114642, Final residual = 0.000954878, No Iterations 11
time step continuity errors : sum local = 0.00273147, global = -1.5704e-16, cumulative = 1.06764e-16
DILUPBiCG:  Solving for epsilon, Initial residual = 0.136824, Final residual = 0.000127056, No Iterations 2
DILUPBiCG:  Solving for k, Initial residual = 0.0982485, Final residual = 0.000166501, No Iterations 2
DICPCG:  Solving for G, Initial residual = 0.0952083, Final residual = 0.00275895, No Iterations 13
Before T+T solve
BiCG:  Solving for T+T, Initial residual = 0.00385292, Final residual = 0.00024152, No Iterations 4
Tres = -1.27392
TsRes = -1.30206
ExecutionTime = 0.03 s



Wall heat fluxes [W]
movingWall -0.34777 -6.26436e-15 0.383232 0.035462
left 0.0244462 -1.17065e-16 0.72319 0.747636
right -0.612447 8.24093e-16 -1.44191 -2.05436
bottom -0.302741 0 0.335492 0.0327512
frontAndBack 0 0 0 0
sum -1.23851 -5.55733e-15 -2.98171e-07 -1.23851


Wall heat fluxes [W]
topAndBottom 0 0 0 0
left 14.0185 0 0 14.0185
right -3.53941 0 0 -3.53941
frontAndBack 0 0 0 0
sum 10.4791 0 0 10.4791

Time = 6

DILUPBiCG:  Solving for Ux, Initial residual = 0.100227, Final residual = 0.000811312, No Iterations 1
DILUPBiCG:  Solving for Uy, Initial residual = 0.129457, Final residual = 0.000993764, No Iterations 1
DICPCG:  Solving for p_rgh, Initial residual = 0.0878541, Final residual = 0.000510807, No Iterations 11
time step continuity errors : sum local = 0.00144292, global = 3.77258e-16, cumulative = 4.84023e-16
DILUPBiCG:  Solving for epsilon, Initial residual = 0.131448, Final residual = 0.000133794, No Iterations 2
DILUPBiCG:  Solving for k, Initial residual = 0.0815772, Final residual = 0.000284147, No Iterations 2
DICPCG:  Solving for G, Initial residual = 0.0686045, Final residual = 0.00195032, No Iterations 13
Before T+T solve
BiCG:  Solving for T+T, Initial residual = 0.00320423, Final residual = 0.000302826, No Iterations 3
Tres = -1.3375
TsRes = -0.919858
ExecutionTime = 0.04 s



Wall heat fluxes [W]
movingWall -0.378378 5.12292e-15 0.406438 0.0280604
left 0.0303592 -8.6715e-18 0.8185 0.848859
right -0.627655 1.16993e-14 -1.58941 -2.21706
bottom -0.336833 0 0.364469 0.0276354
frontAndBack 0 0 0 0
sum -1.31251 1.68136e-14 -5.73654e-07 -1.31251


Wall heat fluxes [W]
topAndBottom 0 0 0 0
left 10.6553 0 0 10.6553
right -3.26345 0 0 -3.26345
frontAndBack 0 0 0 0
sum 7.39187 0 0 7.39187

Time = 7

DILUPBiCG:  Solving for Ux, Initial residual = 0.0750499, Final residual = 0.000592587, No Iterations 1
DILUPBiCG:  Solving for Uy, Initial residual = 0.0912247, Final residual = 0.000750894, No Iterations 1
DICPCG:  Solving for p_rgh, Initial residual = 0.0643539, Final residual = 0.000565854, No Iterations 10
time step continuity errors : sum local = 0.00138699, global = -4.01017e-17, cumulative = 4.43921e-16
DILUPBiCG:  Solving for epsilon, Initial residual = 0.10978, Final residual = 0.000122596, No Iterations 2
DILUPBiCG:  Solving for k, Initial residual = 0.0714695, Final residual = 9.52311e-05, No Iterations 2
DICPCG:  Solving for G, Initial residual = 0.0477636, Final residual = 0.00134431, No Iterations 13
Before T+T solve
BiCG:  Solving for T+T, Initial residual = 0.00285507, Final residual = 0.000220875, No Iterations 3
Tres = -1.37477
TsRes = -0.628486
ExecutionTime = 0.04 s



Wall heat fluxes [W]
movingWall -0.400574 3.90377e-15 0.42221 0.021636
left 0.0360735 -1.95109e-17 0.890938 0.927012
right -0.635445 -6.7497e-15 -1.69432 -2.32976
bottom -0.35792 0 0.381168 0.0232482
frontAndBack 0 0 0 0
sum -1.35787 -2.86545e-15 -5.6128e-07 -1.35787


Wall heat fluxes [W]
topAndBottom 0 0 0 0
left 8.03477 0 0 8.03477
right -3.03994 0 0 -3.03994
frontAndBack 0 0 0 0
sum 4.99483 0 0 4.99483

Time = 8

DILUPBiCG:  Solving for Ux, Initial residual = 0.0610736, Final residual = 0.000477731, No Iterations 1
DILUPBiCG:  Solving for Uy, Initial residual = 0.0733746, Final residual = 0.000589223, No Iterations 1
DICPCG:  Solving for p_rgh, Initial residual = 0.0607854, Final residual = 0.000519576, No Iterations 10
time step continuity errors : sum local = 0.00126427, global = -9.5953e-18, cumulative = 4.34326e-16
DILUPBiCG:  Solving for epsilon, Initial residual = 0.0866611, Final residual = 0.000474608, No Iterations 2
DILUPBiCG:  Solving for k, Initial residual = 0.0660405, Final residual = 0.000105423, No Iterations 2
DICPCG:  Solving for G, Initial residual = 0.0341278, Final residual = 0.000938878, No Iterations 13
Before T+T solve
BiCG:  Solving for T+T, Initial residual = 0.00257789, Final residual = 0.000217145, No Iterations 3
Tres = -1.39469
TsRes = -0.447182
ExecutionTime = 0.04 s



Wall heat fluxes [W]
movingWall -0.415862 2.31511e-18 0.433683 0.0178209
left 0.0403964 -1.84269e-16 0.945898 0.986295
right -0.637494 -9.33369e-19 -1.76896 -2.40645
bottom -0.369648 0 0.389379 0.0197311
frontAndBack 0 0 0 0
sum -1.38261 -1.82888e-16 -4.60862e-07 -1.38261


Wall heat fluxes [W]
topAndBottom 0 0 0 0
left 6.47248 0 0 6.47248
right -2.90356 0 0 -2.90356
frontAndBack 0 0 0 0
sum 3.56892 0 0 3.56892

Time = 9

DILUPBiCG:  Solving for Ux, Initial residual = 0.0542929, Final residual = 0.000403139, No Iterations 1
DILUPBiCG:  Solving for Uy, Initial residual = 0.0620794, Final residual = 0.000488759, No Iterations 1
DICPCG:  Solving for p_rgh, Initial residual = 0.0652681, Final residual = 0.000553332, No Iterations 10
time step continuity errors : sum local = 0.00132326, global = -2.64235e-16, cumulative = 1.70091e-16
DILUPBiCG:  Solving for epsilon, Initial residual = 0.0689292, Final residual = 9.57394e-05, No Iterations 2
DILUPBiCG:  Solving for k, Initial residual = 0.062235, Final residual = 0.000101613, No Iterations 2
DICPCG:  Solving for G, Initial residual = 0.0246087, Final residual = 0.000657967, No Iterations 13
Before T+T solve
BiCG:  Solving for T+T, Initial residual = 0.00243254, Final residual = 0.000190872, No Iterations 3
Tres = -1.4012
TsRes = -0.315747
ExecutionTime = 0.05 s



Wall heat fluxes [W]
movingWall -0.424532 -2.63057e-15 0.439206 0.014674
left 0.0434208 4.33575e-17 0.987171 1.03059
right -0.636755 -1.10955e-14 -1.81742 -2.45417
bottom -0.374926 0 0.391042 0.0161155
frontAndBack 0 0 0 0
sum -1.39279 -1.36828e-14 -3.74914e-07 -1.39279


Wall heat fluxes [W]
topAndBottom 0 0 0 0
left 5.27779 0 0 5.27779
right -2.7988 0 0 -2.7988
frontAndBack 0 0 0 0
sum 2.47899 0 0 2.47899

Time = 10

DILUPBiCG:  Solving for Ux, Initial residual = 0.0500955, Final residual = 0.00036458, No Iterations 1
DILUPBiCG:  Solving for Uy, Initial residual = 0.0582814, Final residual = 0.000418028, No Iterations 1
DICPCG:  Solving for p_rgh, Initial residual = 0.0679605, Final residual = 0.00059292, No Iterations 10
time step continuity errors : sum local = 0.00138349, global = 3.36166e-17, cumulative = 2.03708e-16
DILUPBiCG:  Solving for epsilon, Initial residual = 0.0557729, Final residual = 5.25849e-05, No Iterations 2
DILUPBiCG:  Solving for k, Initial residual = 0.0590952, Final residual = 8.82223e-05, No Iterations 2
DICPCG:  Solving for G, Initial residual = 0.0183826, Final residual = 0.000488927, No Iterations 13
Before T+T solve
BiCG:  Solving for T+T, Initial residual = 0.00232591, Final residual = 0.000179283, No Iterations 3
Tres = -1.40106
TsRes = -0.229003
ExecutionTime = 0.05 s



Wall heat fluxes [W]
movingWall -0.429175 2.60103e-15 0.441515 0.0123408
left 0.0457833 2.60145e-16 1.01887 1.06465
right -0.634139 -2.14177e-15 -1.85083 -2.48497
bottom -0.3774 0 0.390451 0.0130511
frontAndBack 0 0 0 0
sum -1.39493 7.19407e-16 -3.16078e-07 -1.39493


Wall heat fluxes [W]
topAndBottom 0 0 0 0
left 4.53726 0 0 4.53726
right -2.72902 0 0 -2.72902
frontAndBack 0 0 0 0
sum 1.80825 0 0 1.80825

Time = 11

DILUPBiCG:  Solving for Ux, Initial residual = 0.0470387, Final residual = 0.000350883, No Iterations 1
DILUPBiCG:  Solving for Uy, Initial residual = 0.0571659, Final residual = 0.000387304, No Iterations 1
DICPCG:  Solving for p_rgh, Initial residual = 0.070438, Final residual = 0.00069707, No Iterations 10
time step continuity errors : sum local = 0.00157515, global = -3.05858e-16, cumulative = -1.02151e-16
DILUPBiCG:  Solving for epsilon, Initial residual = 0.0460682, Final residual = 4.66137e-05, No Iterations 2
DILUPBiCG:  Solving for k, Initial residual = 0.0563329, Final residual = 7.40552e-05, No Iterations 2
DICPCG:  Solving for G, Initial residual = 0.0137499, Final residual = 0.000363494, No Iterations 13
Before T+T solve
BiCG:  Solving for T+T, Initial residual = 0.00226774, Final residual = 0.000161055, No Iterations 3
Tres = -1.39592
TsRes = -0.166891
ExecutionTime = 0.05 s



Wall heat fluxes [W]
movingWall -0.430397 -3.96275e-15 0.440963 0.0105657
left 0.0477456 3.90217e-16 1.043 1.09075
right -0.630864 -1.07292e-14 -1.87244 -2.50331
bottom -0.378018 0 0.388477 0.010459
frontAndBack 0 0 0 0
sum -1.39153 -1.43017e-14 -2.60204e-07 -1.39153


Wall heat fluxes [W]
topAndBottom 0 0 0 0
left 3.96942 0 0 3.96942
right -2.67664 0 0 -2.67664
frontAndBack 0 0 0 0
sum 1.29278 0 0 1.29278

Time = 12

DILUPBiCG:  Solving for Ux, Initial residual = 0.0441418, Final residual = 0.000343367, No Iterations 1
DILUPBiCG:  Solving for Uy, Initial residual = 0.0557829, Final residual = 0.000366176, No Iterations 1
DICPCG:  Solving for p_rgh, Initial residual = 0.0701161, Final residual = 0.000489759, No Iterations 11
time step continuity errors : sum local = 0.00110576, global = 1.67818e-16, cumulative = 6.56678e-17
DILUPBiCG:  Solving for epsilon, Initial residual = 0.0385948, Final residual = 4.0215e-05, No Iterations 2
DILUPBiCG:  Solving for k, Initial residual = 0.0539662, Final residual = 6.52936e-05, No Iterations 2
DICPCG:  Solving for G, Initial residual = 0.0106275, Final residual = 0.00028097, No Iterations 13
Before T+T solve
BiCG:  Solving for T+T, Initial residual = 0.00221526, Final residual = 0.000144628, No Iterations 3
Tres = -1.3882
TsRes = -0.124086
ExecutionTime = 0.06 s



Wall heat fluxes [W]
movingWall -0.429353 3.9381e-15 0.43874 0.0093864
left 0.0493891 1.38744e-16 1.0619 1.11129
right -0.627291 3.00734e-15 -1.88711 -2.5144
bottom -0.377673 0 0.386474 0.00880061
frontAndBack 0 0 0 0
sum -1.38493 7.08419e-15 -1.98905e-07 -1.38493


Wall heat fluxes [W]
topAndBottom 0 0 0 0
left 3.60215 0 0 3.60215
right -2.6397 0 0 -2.6397
frontAndBack 0 0 0 0
sum 0.96245 0 0 0.96245

Time = 13

DILUPBiCG:  Solving for Ux, Initial residual = 0.0417139, Final residual = 0.000367092, No Iterations 1
DILUPBiCG:  Solving for Uy, Initial residual = 0.0534631, Final residual = 0.000353458, No Iterations 1
DICPCG:  Solving for p_rgh, Initial residual = 0.0678814, Final residual = 0.000670026, No Iterations 10
time step continuity errors : sum local = 0.0014568, global = 2.33066e-16, cumulative = 2.98734e-16
DILUPBiCG:  Solving for epsilon, Initial residual = 0.0332208, Final residual = 3.32977e-05, No Iterations 2
DILUPBiCG:  Solving for k, Initial residual = 0.0522241, Final residual = 6.13489e-05, No Iterations 2
DICPCG:  Solving for G, Initial residual = 0.0084271, Final residual = 0.000219937, No Iterations 13
Before T+T solve
BiCG:  Solving for T+T, Initial residual = 0.00218483, Final residual = 0.000199712, No Iterations 1
Tres = -1.37675
TsRes = -0.127447
ExecutionTime = 0.06 s



Wall heat fluxes [W]
movingWall -0.426697 2.65164e-15 0.4351 0.00840295
left 0.050692 -1.7343e-17 1.07702 1.12771
right -0.623846 9.03909e-15 -1.89613 -2.51997
bottom -0.376683 0 0.384011 0.00732818
frontAndBack 0 0 0 0
sum -1.37653 1.16734e-14 -1.35009e-07 -1.37653


Wall heat fluxes [W]
topAndBottom 0 0 0 0
left 2.58115 0 0 2.58115
right -2.63678 0 0 -2.63678
frontAndBack 0 0 0 0
sum -0.055626 0 0 -0.055626

Time = 14

DILUPBiCG:  Solving for Ux, Initial residual = 0.0397024, Final residual = 8.08978e-06, No Iterations 2
DILUPBiCG:  Solving for Uy, Initial residual = 0.0513936, Final residual = 0.000356905, No Iterations 1
DICPCG:  Solving for p_rgh, Initial residual = 0.067665, Final residual = 0.000647302, No Iterations 10
time step continuity errors : sum local = 0.00137263, global = 6.08805e-17, cumulative = 3.59615e-16
DILUPBiCG:  Solving for epsilon, Initial residual = 0.0294162, Final residual = 2.80121e-05, No Iterations 2
DILUPBiCG:  Solving for k, Initial residual = 0.0511112, Final residual = 6.11667e-05, No Iterations 2
DICPCG:  Solving for G, Initial residual = 0.00684483, Final residual = 0.000178641, No Iterations 13
Before T+T solve
BiCG:  Solving for T+T, Initial residual = 0.00215063, Final residual = 0.000153471, No Iterations 3
Tres = -1.36754
TsRes = -0.0955779
ExecutionTime = 0.06 s



Wall heat fluxes [W]
movingWall -0.422868 -2.51741e-15 0.430671 0.00780224
left 0.0522301 -1.04058e-16 1.08937 1.1416
right -0.618509 6.45869e-15 -1.90178 -2.52029
bottom -0.37559 0 0.381736 0.00614558
frontAndBack 0 0 0 0
sum -1.36474 3.83722e-15 -9.23408e-08 -1.36474


Wall heat fluxes [W]
topAndBottom 0 0 0 0
left 3.44692 0 0 3.44692
right -2.61047 0 0 -2.61047
frontAndBack 0 0 0 0
sum 0.836454 0 0 0.836454

Time = 15

DILUPBiCG:  Solving for Ux, Initial residual = 0.0389171, Final residual = 8.49423e-06, No Iterations 2
DILUPBiCG:  Solving for Uy, Initial residual = 0.0499875, Final residual = 0.000352968, No Iterations 1
DICPCG:  Solving for p_rgh, Initial residual = 0.0695572, Final residual = 0.000609087, No Iterations 10
time step continuity errors : sum local = 0.00128944, global = 1.16401e-16, cumulative = 4.76016e-16
DILUPBiCG:  Solving for epsilon, Initial residual = 0.0272659, Final residual = 2.42371e-05, No Iterations 2
DILUPBiCG:  Solving for k, Initial residual = 0.0507195, Final residual = 6.31344e-05, No Iterations 2
DICPCG:  Solving for G, Initial residual = 0.00400957, Final residual = 0.000262987, No Iterations 11
Before T+T solve
BiCG:  Solving for T+T, Initial residual = 0.00220125, Final residual = 0.000175025, No Iterations 1
Tres = -1.35217
TsRes = -0.102404
ExecutionTime = 0.06 s



Wall heat fluxes [W]
movingWall -0.41632 1.21002e-15 0.422264 0.00594389
left 0.0536572 1.04058e-16 1.09657 1.15023
right -0.616635 3.4506e-15 -1.89548 -2.51211
bottom -0.372742 0 0.376638 0.00389653
frontAndBack 0 0 0 0
sum -1.35204 4.76467e-15 -2.86332e-07 -1.35204


Wall heat fluxes [W]
topAndBottom 0 0 0 0
left 2.5497 0 0 2.5497
right -2.60826 0 0 -2.60826
frontAndBack 0 0 0 0
sum -0.0585682 0 0 -0.0585682

Time = 16

DILUPBiCG:  Solving for Ux, Initial residual = 0.0343801, Final residual = 5.4228e-06, No Iterations 2
DILUPBiCG:  Solving for Uy, Initial residual = 0.0500804, Final residual = 0.000358145, No Iterations 1
DICPCG:  Solving for p_rgh, Initial residual = 0.0726672, Final residual = 0.000591295, No Iterations 10
time step continuity errors : sum local = 0.00126168, global = 2.85874e-17, cumulative = 5.04603e-16
DILUPBiCG:  Solving for epsilon, Initial residual = 0.0258082, Final residual = 2.20527e-05, No Iterations 2
DILUPBiCG:  Solving for k, Initial residual = 0.0507543, Final residual = 6.6454e-05, No Iterations 2
DICPCG:  Solving for G, Initial residual = 0.00501742, Final residual = 0.000127366, No Iterations 13
Before T+T solve
BiCG:  Solving for T+T, Initial residual = 0.00215069, Final residual = 0.000187212, No Iterations 1
Tres = -1.34197
TsRes = -0.101832
ExecutionTime = 0.07 s



Wall heat fluxes [W]
movingWall -0.411929 -2.63751e-15 0.419232 0.00730294
left 0.0555225 1.04058e-16 1.10538 1.1609
right -0.612885 4.74239e-15 -1.9023 -2.51518
bottom -0.372452 0 0.37769 0.00523777
frontAndBack 0 0 0 0
sum -1.34174 2.20894e-15 -7.69882e-08 -1.34174


Wall heat fluxes [W]
topAndBottom 0 0 0 0
left 2.57922 0 0 2.57922
right -2.60593 0 0 -2.60593
frontAndBack 0 0 0 0
sum -0.0267107 0 0 -0.0267107

Time = 17

DILUPBiCG:  Solving for Ux, Initial residual = 0.0347521, Final residual = 5.18361e-06, No Iterations 2
DILUPBiCG:  Solving for Uy, Initial residual = 0.046935, Final residual = 0.000356792, No Iterations 1
DICPCG:  Solving for p_rgh, Initial residual = 0.0736114, Final residual = 0.000421965, No Iterations 10
time step continuity errors : sum local = 0.000938191, global = 5.29379e-19, cumulative = 5.05132e-16
DILUPBiCG:  Solving for epsilon, Initial residual = 0.0253255, Final residual = 2.14816e-05, No Iterations 2
DILUPBiCG:  Solving for k, Initial residual = 0.0510375, Final residual = 7.07702e-05, No Iterations 2
DICPCG:  Solving for G, Initial residual = 0.00353317, Final residual = 0.000175747, No Iterations 11
Before T+T solve
BiCG:  Solving for T+T, Initial residual = 0.00217074, Final residual = 0.000195799, No Iterations 1
Tres = -1.32755
TsRes = -0.106049
ExecutionTime = 0.07 s



Wall heat fluxes [W]
movingWall -0.405179 -2.65361e-15 0.411022 0.00584313
left 0.0579297 -9.01836e-16 1.11177 1.1697
right -0.609833 5.60743e-15 -1.8964 -2.50623
bottom -0.370194 0 0.373603 0.0034088
frontAndBack 0 0 0 0
sum -1.32728 2.05198e-15 -2.13758e-07 -1.32728


Wall heat fluxes [W]
topAndBottom 0 0 0 0
left 2.58855 0 0 2.58855
right -2.60355 0 0 -2.60355
frontAndBack 0 0 0 0
sum -0.0150057 0 0 -0.0150057

Time = 18

DILUPBiCG:  Solving for Ux, Initial residual = 0.0324984, Final residual = 3.77573e-06, No Iterations 2
DILUPBiCG:  Solving for Uy, Initial residual = 0.0472471, Final residual = 0.000367386, No Iterations 1
DICPCG:  Solving for p_rgh, Initial residual = 0.0732731, Final residual = 0.000425252, No Iterations 9
time step continuity errors : sum local = 0.00094572, global = -7.75565e-17, cumulative = 4.27576e-16
DILUPBiCG:  Solving for epsilon, Initial residual = 0.0252079, Final residual = 2.15654e-05, No Iterations 2
DILUPBiCG:  Solving for k, Initial residual = 0.0514764, Final residual = 7.61827e-05, No Iterations 2
DICPCG:  Solving for G, Initial residual = 0.00287412, Final residual = 0.000205495, No Iterations 11
Before T+T solve
BiCG:  Solving for T+T, Initial residual = 0.0021888, Final residual = 0.000201939, No Iterations 1
Tres = -1.31305
TsRes = -0.108481
ExecutionTime = 0.07 s



Wall heat fluxes [W]
movingWall -0.398314 1.3982e-15 0.404263 0.00594863
left 0.0611476 1.7343e-16 1.11668 1.17783
right -0.607259 -4.74234e-15 -1.89264 -2.4999
bottom -0.368337 0 0.371697 0.00336069
frontAndBack 0 0 0 0
sum -1.31276 -3.1707e-15 -1.68979e-07 -1.31276


Wall heat fluxes [W]
topAndBottom 0 0 0 0
left 2.58689 0 0 2.58689
right -2.6012 0 0 -2.6012
frontAndBack 0 0 0 0
sum -0.0143088 0 0 -0.0143088

Time = 19

DILUPBiCG:  Solving for Ux, Initial residual = 0.0304538, Final residual = 2.8438e-06, No Iterations 2
DILUPBiCG:  Solving for Uy, Initial residual = 0.046219, Final residual = 0.000370679, No Iterations 1
DICPCG:  Solving for p_rgh, Initial residual = 0.0710128, Final residual = 0.000610522, No Iterations 9
time step continuity errors : sum local = 0.00143612, global = 8.89467e-17, cumulative = 5.16523e-16
DILUPBiCG:  Solving for epsilon, Initial residual = 0.0256039, Final residual = 2.34988e-05, No Iterations 2
DILUPBiCG:  Solving for k, Initial residual = 0.052152, Final residual = 8.25443e-05, No Iterations 2
DICPCG:  Solving for G, Initial residual = 0.00292412, Final residual = 0.000154474, No Iterations 11
Before T+T solve
BiCG:  Solving for T+T, Initial residual = 0.00220573, Final residual = 0.000208398, No Iterations 1
Tres = -1.29773
TsRes = -0.111006
ExecutionTime = 0.08 s



Wall heat fluxes [W]
movingWall -0.391201 -8.01e-15 0.39739 0.00618932
left 0.0654807 8.6715e-16 1.12168 1.18716
right -0.604994 1.37964e-14 -1.88906 -2.49405
bottom -0.366721 0 0.369983 0.00326285
frontAndBack 0 0 0 0
sum -1.29743 6.65353e-15 -2.5168e-07 -1.29743


Wall heat fluxes [W]
topAndBottom 0 0 0 0
left 2.58548 0 0 2.58548
right -2.59891 0 0 -2.59891
frontAndBack 0 0 0 0
sum -0.013427 0 0 -0.013427

Time = 20

DILUPBiCG:  Solving for Ux, Initial residual = 0.0285751, Final residual = 2.27597e-06, No Iterations 2
DILUPBiCG:  Solving for Uy, Initial residual = 0.0453854, Final residual = 0.000373123, No Iterations 1
DICPCG:  Solving for p_rgh, Initial residual = 0.0698882, Final residual = 0.000606288, No Iterations 10
time step continuity errors : sum local = 0.00142179, global = -1.82906e-16, cumulative = 3.33616e-16
DILUPBiCG:  Solving for epsilon, Initial residual = 0.0262135, Final residual = 2.57009e-05, No Iterations 2
DILUPBiCG:  Solving for k, Initial residual = 0.0528237, Final residual = 8.93931e-05, No Iterations 2
DICPCG:  Solving for G, Initial residual = 0.00293551, Final residual = 0.000118837, No Iterations 11
Before T+T solve
BiCG:  Solving for T+T, Initial residual = 0.00221957, Final residual = 0.000215066, No Iterations 1
Tres = -1.2812
TsRes = -0.113777
ExecutionTime = 0.08 s



Wall heat fluxes [W]
movingWall -0.38366 -1.37746e-15 0.390127 0.00646752
left 0.0711008 -4.16232e-16 1.12678 1.19788
right -0.602924 -8.19257e-15 -1.88546 -2.48839
bottom -0.365417 0 0.368555 0.00313874
frontAndBack 0 0 0 0
sum -1.2809 -9.98626e-15 -1.01163e-07 -1.2809


Wall heat fluxes [W]
topAndBottom 0 0 0 0
left 2.58289 0 0 2.58289
right -2.59668 0 0 -2.59668
frontAndBack 0 0 0 0
sum -0.0137874 0 0 -0.0137874

Time = 21

DILUPBiCG:  Solving for Ux, Initial residual = 0.0269919, Final residual = 1.94843e-06, No Iterations 2
DILUPBiCG:  Solving for Uy, Initial residual = 0.0439026, Final residual = 0.000372752, No Iterations 1
DICPCG:  Solving for p_rgh, Initial residual = 0.0677836, Final residual = 0.000662671, No Iterations 10
time step continuity errors : sum local = 0.00159514, global = -1.73112e-16, cumulative = 1.60504e-16
DILUPBiCG:  Solving for epsilon, Initial residual = 0.0264891, Final residual = 2.78381e-05, No Iterations 2
DILUPBiCG:  Solving for k, Initial residual = 0.0537591, Final residual = 9.54807e-05, No Iterations 2
DICPCG:  Solving for G, Initial residual = 0.00299374, Final residual = 0.000161217, No Iterations 11
Before T+T solve
BiCG:  Solving for T+T, Initial residual = 0.0022305, Final residual = 0.000222101, No Iterations 1
Tres = -1.26306
TsRes = -0.116777
ExecutionTime = 0.08 s



Wall heat fluxes [W]
movingWall -0.375647 -3.92981e-15 0.382404 0.00675651
left 0.0782199 3.4686e-17 1.13197 1.21019
right -0.600963 -3.44946e-15 -1.88185 -2.48281
bottom -0.36436 0 0.36747 0.00311022
frontAndBack 0 0 0 0
sum -1.26275 -7.34459e-15 -2.83729e-07 -1.26275


Wall heat fluxes [W]
topAndBottom 0 0 0 0
left 2.58018 0 0 2.58018
right -2.59448 0 0 -2.59448
frontAndBack 0 0 0 0
sum -0.0143013 0 0 -0.0143013

Time = 22

DILUPBiCG:  Solving for Ux, Initial residual = 0.0253457, Final residual = 1.72284e-06, No Iterations 2
DILUPBiCG:  Solving for Uy, Initial residual = 0.0426474, Final residual = 0.000374891, No Iterations 1
DICPCG:  Solving for p_rgh, Initial residual = 0.0637482, Final residual = 0.000561588, No Iterations 10
time step continuity errors : sum local = 0.00140009, global = 2.17582e-16, cumulative = 3.78086e-16
DILUPBiCG:  Solving for epsilon, Initial residual = 0.0264704, Final residual = 3.0196e-05, No Iterations 2
DILUPBiCG:  Solving for k, Initial residual = 0.0545951, Final residual = 0.000100563, No Iterations 2
DICPCG:  Solving for G, Initial residual = 0.00308103, Final residual = 0.000287958, No Iterations 11
Before T+T solve
BiCG:  Solving for T+T, Initial residual = 0.00223412, Final residual = 0.000102195, No Iterations 3
Tres = -1.24488
TsRes = -0.0906752
ExecutionTime = 0.09 s



Wall heat fluxes [W]
movingWall -0.366985 -2.25022e-17 0.374245 0.00725997
left 0.0872653 3.4686e-17 1.13731 1.22458
right -0.598965 9.48822e-15 -1.87814 -2.47711
bottom -0.363532 0 0.366584 0.00305272
frontAndBack 0 0 0 0
sum -1.24222 9.50041e-15 -7.5432e-07 -1.24222


Wall heat fluxes [W]
topAndBottom 0 0 0 0
left 3.3684 0 0 3.3684
right -2.57237 0 0 -2.57237
frontAndBack 0 0 0 0
sum 0.796038 0 0 0.796038

Time = 23

DILUPBiCG:  Solving for Ux, Initial residual = 0.0234004, Final residual = 1.58557e-06, No Iterations 2
DILUPBiCG:  Solving for Uy, Initial residual = 0.0409888, Final residual = 0.000383482, No Iterations 1
DICPCG:  Solving for p_rgh, Initial residual = 0.0577997, Final residual = 0.00043559, No Iterations 10
time step continuity errors : sum local = 0.00109767, global = -2.5623e-16, cumulative = 1.21856e-16
DILUPBiCG:  Solving for epsilon, Initial residual = 0.0260309, Final residual = 3.26533e-05, No Iterations 2
DILUPBiCG:  Solving for k, Initial residual = 0.0550511, Final residual = 0.000104862, No Iterations 2
DICPCG:  Solving for G, Initial residual = 0.00326909, Final residual = 8.22481e-05, No Iterations 13
Before T+T solve
BiCG:  Solving for T+T, Initial residual = 0.00220899, Final residual = 0.000186825, No Iterations 1
Tres = -1.22281
TsRes = -0.0955289
ExecutionTime = 0.09 s



Wall heat fluxes [W]
movingWall -0.358056 -4.05577e-15 0.365315 0.00725835
left 0.0976684 -1.04058e-16 1.14289 1.24056
right -0.599304 -6.47595e-15 -1.87426 -2.47356
bottom -0.362962 0 0.366048 0.00308556
frontAndBack 0 0 0 0
sum -1.22265 -1.06358e-14 1.23864e-07 -1.22265


Wall heat fluxes [W]
topAndBottom 0 0 0 0
left 2.52566 0 0 2.52566
right -2.56995 0 0 -2.56995
frontAndBack 0 0 0 0
sum -0.0442899 0 0 -0.0442899

Time = 24

DILUPBiCG:  Solving for Ux, Initial residual = 0.0213998, Final residual = 1.56853e-06, No Iterations 2
DILUPBiCG:  Solving for Uy, Initial residual = 0.0395449, Final residual = 0.00036611, No Iterations 1
DICPCG:  Solving for p_rgh, Initial residual = 0.0545826, Final residual = 0.000423483, No Iterations 10
time step continuity errors : sum local = 0.00106268, global = -2.03553e-16, cumulative = -8.16965e-17
DILUPBiCG:  Solving for epsilon, Initial residual = 0.0253347, Final residual = 3.47774e-05, No Iterations 2
DILUPBiCG:  Solving for k, Initial residual = 0.0551296, Final residual = 0.000108762, No Iterations 2
DICPCG:  Solving for G, Initial residual = 0.00494859, Final residual = 0.000264114, No Iterations 12
Before T+T solve
BiCG:  Solving for T+T, Initial residual = 0.00217306, Final residual = 0.000200271, No Iterations 1
Tres = -1.20224
TsRes = -0.0961196
ExecutionTime = 0.09 s



Wall heat fluxes [W]
movingWall -0.350713 -5.33029e-15 0.359769 0.00905543
left 0.110009 5.54976e-16 1.15182 1.26183
right -0.5971 -4.3191e-15 -1.88041 -2.47751
bottom -0.364211 0 0.368826 0.00461424
frontAndBack 0 0 0 0
sum -1.20202 -9.09441e-15 1.57618e-07 -1.20202


Wall heat fluxes [W]
topAndBottom 0 0 0 0
left 2.54599 0 0 2.54599
right -2.56745 0 0 -2.56745
frontAndBack 0 0 0 0
sum -0.0214626 0 0 -0.0214626

Time = 25

DILUPBiCG:  Solving for Ux, Initial residual = 0.0200655, Final residual = 1.48199e-06, No Iterations 2
DILUPBiCG:  Solving for Uy, Initial residual = 0.0357239, Final residual = 0.0003519, No Iterations 1
DICPCG:  Solving for p_rgh, Initial residual = 0.0513053, Final residual = 0.000452498, No Iterations 10
time step continuity errors : sum local = 0.00122109, global = -9.50265e-17, cumulative = -1.76723e-16
DILUPBiCG:  Solving for epsilon, Initial residual = 0.0242099, Final residual = 3.65478e-05, No Iterations 2
DILUPBiCG:  Solving for k, Initial residual = 0.055035, Final residual = 0.000111792, No Iterations 2
DICPCG:  Solving for G, Initial residual = 0.00397978, Final residual = 0.000370394, No Iterations 12
Before T+T solve
BiCG:  Solving for T+T, Initial residual = 0.00215097, Final residual = 0.000210993, No Iterations 1
Tres = -1.17544
TsRes = -0.102056
ExecutionTime = 0.1 s



Wall heat fluxes [W]
movingWall -0.340867 -6.77749e-15 0.348677 0.00781029
left 0.124074 5.2029e-16 1.15885 1.28293
right -0.594886 2.59277e-15 -1.87415 -2.46903
bottom -0.363497 0 0.366615 0.00311743
frontAndBack 0 0 0 0
sum -1.17518 -3.66443e-15 1.53004e-07 -1.17518


Wall heat fluxes [W]
topAndBottom 0 0 0 0
left 2.55078 0 0 2.55078
right -2.565 0 0 -2.565
frontAndBack 0 0 0 0
sum -0.0142225 0 0 -0.0142225

Time = 26

DILUPBiCG:  Solving for Ux, Initial residual = 0.0182427, Final residual = 1.57219e-06, No Iterations 2
DILUPBiCG:  Solving for Uy, Initial residual = 0.035145, Final residual = 4.4321e-06, No Iterations 2
DICPCG:  Solving for p_rgh, Initial residual = 0.0483954, Final residual = 0.000394114, No Iterations 11
time step continuity errors : sum local = 0.00108865, global = 8.2321e-17, cumulative = -9.4402e-17
DILUPBiCG:  Solving for epsilon, Initial residual = 0.0226871, Final residual = 3.67502e-05, No Iterations 2
DILUPBiCG:  Solving for k, Initial residual = 0.054339, Final residual = 0.000114051, No Iterations 2
DICPCG:  Solving for G, Initial residual = 0.00339083, Final residual = 0.000327787, No Iterations 12
Before T+T solve
BiCG:  Solving for T+T, Initial residual = 0.00211768, Final residual = 0.000192562, No Iterations 2
Tres = -1.14678
TsRes = -0.100152
ExecutionTime = 0.1 s



Wall heat fluxes [W]
movingWall -0.330452 -6.80255e-15 0.338841 0.00838841
left 0.13992 1.63024e-15 1.16464 1.30456
right -0.592686 1.03679e-14 -1.86962 -2.46231
bottom -0.362769 0 0.366147 0.0033779
frontAndBack 0 0 0 0
sum -1.14599 5.19564e-15 2.04493e-07 -1.14599


Wall heat fluxes [W]
topAndBottom 0 0 0 0
left 2.72209 0 0 2.72209
right -2.55862 0 0 -2.55862
frontAndBack 0 0 0 0
sum 0.163472 0 0 0.163472

Time = 27

DILUPBiCG:  Solving for Ux, Initial residual = 0.0169677, Final residual = 2.14398e-06, No Iterations 2
DILUPBiCG:  Solving for Uy, Initial residual = 0.0313531, Final residual = 9.46769e-06, No Iterations 2
DICPCG:  Solving for p_rgh, Initial residual = 0.0415633, Final residual = 0.000410143, No Iterations 11
time step continuity errors : sum local = 0.00113139, global = 5.00279e-17, cumulative = -4.43741e-17
DILUPBiCG:  Solving for epsilon, Initial residual = 0.0208063, Final residual = 3.95152e-05, No Iterations 2
DILUPBiCG:  Solving for k, Initial residual = 0.0531111, Final residual = 0.000113803, No Iterations 2
DICPCG:  Solving for G, Initial residual = 0.00361918, Final residual = 0.000339638, No Iterations 12
Before T+T solve
BiCG:  Solving for T+T, Initial residual = 0.00208191, Final residual = 0.000191815, No Iterations 2
Tres = -1.11724
TsRes = -0.100429
ExecutionTime = 0.1 s



Wall heat fluxes [W]
movingWall -0.320201 2.77166e-15 0.32831 0.00810944
left 0.156588 1.14464e-15 1.17089 1.32748
right -0.590883 4.3349e-16 -1.86483 -2.45571
bottom -0.36208 0 0.365628 0.0035472
frontAndBack 0 0 0 0
sum -1.11658 4.34979e-15 3.35756e-07 -1.11658


Wall heat fluxes [W]
topAndBottom 0 0 0 0
left 2.6738 0 0 2.6738
right -2.55285 0 0 -2.55285
frontAndBack 0 0 0 0
sum 0.120946 0 0 0.120946

Time = 28

DILUPBiCG:  Solving for Ux, Initial residual = 0.0153277, Final residual = 2.95933e-06, No Iterations 2
DILUPBiCG:  Solving for Uy, Initial residual = 0.0285085, Final residual = 4.16726e-06, No Iterations 2
DICPCG:  Solving for p_rgh, Initial residual = 0.0386954, Final residual = 0.000369189, No Iterations 11
time step continuity errors : sum local = 0.00104674, global = -7.09431e-17, cumulative = -1.15317e-16
DILUPBiCG:  Solving for epsilon, Initial residual = 0.0190099, Final residual = 5.11715e-05, No Iterations 2
DILUPBiCG:  Solving for k, Initial residual = 0.0514213, Final residual = 0.000112405, No Iterations 2
DICPCG:  Solving for G, Initial residual = 0.00401706, Final residual = 0.000280626, No Iterations 12
Before T+T solve
BiCG:  Solving for T+T, Initial residual = 0.00203572, Final residual = 0.00019284, No Iterations 2
Tres = -1.08796
TsRes = -0.100066
ExecutionTime = 0.11 s



Wall heat fluxes [W]
movingWall -0.310864 1.22102e-17 0.319044 0.0081795
left 0.17395 -3.36454e-15 1.17784 1.35179
right -0.588832 3.45605e-15 -1.86236 -2.45119
bottom -0.361556 0 0.365473 0.00391678
frontAndBack 0 0 0 0
sum -1.0873 1.03723e-16 5.39322e-09 -1.0873


Wall heat fluxes [W]
topAndBottom 0 0 0 0
left 2.66709 0 0 2.66709
right -2.54717 0 0 -2.54717
frontAndBack 0 0 0 0
sum 0.119919 0 0 0.119919

Time = 29

DILUPBiCG:  Solving for Ux, Initial residual = 0.0140069, Final residual = 6.26038e-06, No Iterations 2
DILUPBiCG:  Solving for Uy, Initial residual = 0.0253994, Final residual = 3.09876e-06, No Iterations 2
DICPCG:  Solving for p_rgh, Initial residual = 0.0370929, Final residual = 0.00028781, No Iterations 11
time step continuity errors : sum local = 0.000838863, global = -2.19699e-16, cumulative = -3.35016e-16
DILUPBiCG:  Solving for epsilon, Initial residual = 0.0174226, Final residual = 0.000126061, No Iterations 2
DILUPBiCG:  Solving for k, Initial residual = 0.0494526, Final residual = 0.000111583, No Iterations 2
DICPCG:  Solving for G, Initial residual = 0.0040033, Final residual = 0.000365169, No Iterations 11
Before T+T solve
BiCG:  Solving for T+T, Initial residual = 0.00198917, Final residual = 0.000194587, No Iterations 2
Tres = -1.05833
TsRes = -0.100178
ExecutionTime = 0.11 s



Wall heat fluxes [W]
movingWall -0.301904 1.42185e-15 0.309669 0.00776496
left 0.191639 2.25459e-15 1.18482 1.37646
right -0.586672 -1.55591e-14 -1.85911 -2.44578
bottom -0.36073 0 0.364614 0.00388441
frontAndBack 0 0 0 0
sum -1.05767 -1.18827e-14 -1.06003e-06 -1.05767


Wall heat fluxes [W]
topAndBottom 0 0 0 0
left 2.66206 0 0 2.66206
right -2.54151 0 0 -2.54151
frontAndBack 0 0 0 0
sum 0.120551 0 0 0.120551

Time = 30

DILUPBiCG:  Solving for Ux, Initial residual = 0.0128809, Final residual = 2.30293e-05, No Iterations 2
DILUPBiCG:  Solving for Uy, Initial residual = 0.0226932, Final residual = 2.58587e-05, No Iterations 2
DICPCG:  Solving for p_rgh, Initial residual = 0.0344763, Final residual = 0.000157597, No Iterations 11
time step continuity errors : sum local = 0.000441035, global = 6.32628e-17, cumulative = -2.71754e-16
DILUPBiCG:  Solving for epsilon, Initial residual = 0.0162474, Final residual = 9.94777e-05, No Iterations 2
DILUPBiCG:  Solving for k, Initial residual = 0.0470281, Final residual = 0.000122449, No Iterations 2
DICPCG:  Solving for G, Initial residual = 0.0039923, Final residual = 0.000268846, No Iterations 12
Before T+T solve
BiCG:  Solving for T+T, Initial residual = 0.00194343, Final residual = 0.000166017, No Iterations 3
Tres = -1.03089
TsRes = -0.0798138
ExecutionTime = 0.11 s



Wall heat fluxes [W]
movingWall -0.293854 2.0751e-15 0.300898 0.00704408
left 0.209057 -7.28406e-16 1.19158 1.40064
right -0.584308 2.59068e-15 -1.85607 -2.44038
bottom -0.359689 0 0.363592 0.00390277
frontAndBack 0 0 0 0
sum -1.02879 3.93737e-15 2.78646e-07 -1.02879


Wall heat fluxes [W]
topAndBottom 0 0 0 0
left 3.13669 0 0 3.13669
right -2.52102 0 0 -2.52102
frontAndBack 0 0 0 0
sum 0.615665 0 0 0.615665

Time = 31

DILUPBiCG:  Solving for Ux, Initial residual = 0.0116993, Final residual = 4.71571e-06, No Iterations 2
DILUPBiCG:  Solving for Uy, Initial residual = 0.0201455, Final residual = 8.80654e-06, No Iterations 2
DICPCG:  Solving for p_rgh, Initial residual = 0.031523, Final residual = 0.000164883, No Iterations 11
time step continuity errors : sum local = 0.000449691, global = -2.12817e-16, cumulative = -4.84571e-16
DILUPBiCG:  Solving for epsilon, Initial residual = 0.0152804, Final residual = 3.10744e-05, No Iterations 2
DILUPBiCG:  Solving for k, Initial residual = 0.0448529, Final residual = 6.95897e-05, No Iterations 2
DICPCG:  Solving for G, Initial residual = 0.00368023, Final residual = 0.000275322, No Iterations 11
Before T+T solve
BiCG:  Solving for T+T, Initial residual = 0.00190414, Final residual = 0.000187839, No Iterations 1
Tres = -1.00162
TsRes = -0.0858194
ExecutionTime = 0.12 s



Wall heat fluxes [W]
movingWall -0.286519 -4.79417e-15 0.293221 0.00670171
left 0.226808 6.24348e-16 1.19798 1.42479
right -0.583243 -6.92177e-15 -1.85339 -2.43663
bottom -0.358483 0 0.362185 0.00370259
frontAndBack 0 0 0 0
sum -1.00144 -1.10916e-14 -1.78401e-07 -1.00144


Wall heat fluxes [W]
topAndBottom 0 0 0 0
left 2.49385 0 0 2.49385
right -2.51898 0 0 -2.51898
frontAndBack 0 0 0 0
sum -0.0251296 0 0 -0.0251296

Time = 32

DILUPBiCG:  Solving for Ux, Initial residual = 0.0103716, Final residual = 6.90383e-06, No Iterations 2
DILUPBiCG:  Solving for Uy, Initial residual = 0.0182954, Final residual = 5.35306e-06, No Iterations 2
DICPCG:  Solving for p_rgh, Initial residual = 0.0295036, Final residual = 0.000251252, No Iterations 6
time step continuity errors : sum local = 0.000878243, global = -5.13524e-17, cumulative = -5.35923e-16
DILUPBiCG:  Solving for epsilon, Initial residual = 0.0146938, Final residual = 1.82308e-05, No Iterations 2
DILUPBiCG:  Solving for k, Initial residual = 0.042598, Final residual = 7.20668e-05, No Iterations 2
DICPCG:  Solving for G, Initial residual = 0.00468076, Final residual = 0.000359772, No Iterations 12
Before T+T solve
BiCG:  Solving for T+T, Initial residual = 0.00182204, Final residual = 0.000160953, No Iterations 2
Tres = -0.975887
TsRes = -0.0830458
ExecutionTime = 0.12 s



Wall heat fluxes [W]
movingWall -0.280664 -2.11612e-15 0.288008 0.00734323
left 0.243721 -2.84425e-15 1.20614 1.44986
right -0.580405 2.59631e-15 -1.8571 -2.4375
bottom -0.357933 0 0.362953 0.00501994
frontAndBack 0 0 0 0
sum -0.975282 -2.36406e-15 3.1612e-08 -0.975282


Wall heat fluxes [W]
topAndBottom 0 0 0 0
left 2.63186 0 0 2.63186
right -2.51374 0 0 -2.51374
frontAndBack 0 0 0 0
sum 0.118121 0 0 0.118121

Time = 33

DILUPBiCG:  Solving for Ux, Initial residual = 0.0107479, Final residual = 2.55352e-06, No Iterations 2
DILUPBiCG:  Solving for Uy, Initial residual = 0.0146927, Final residual = 0.000146545, No Iterations 1
DICPCG:  Solving for p_rgh, Initial residual = 0.0243632, Final residual = 0.000229359, No Iterations 7
time step continuity errors : sum local = 0.000936205, global = -2.5305e-16, cumulative = -7.88973e-16
DILUPBiCG:  Solving for epsilon, Initial residual = 0.0142305, Final residual = 1.36235e-05, No Iterations 2
DILUPBiCG:  Solving for k, Initial residual = 0.0407472, Final residual = 7.19565e-05, No Iterations 2
DICPCG:  Solving for G, Initial residual = 0.00374775, Final residual = 0.000354945, No Iterations 11
Before T+T solve
BiCG:  Solving for T+T, Initial residual = 0.00179926, Final residual = 0.000167535, No Iterations 2
Tres = -0.94836
TsRes = -0.0850665
ExecutionTime = 0.12 s



Wall heat fluxes [W]
movingWall -0.27402 -5.51667e-15 0.27973 0.00571018
left 0.259639 4.85604e-16 1.21255 1.47219
right -0.577975 -9.52224e-15 -1.85159 -2.42957
bottom -0.355441 0 0.359317 0.00387555
frontAndBack 0 0 0 0
sum -0.947797 -1.45533e-14 2.87506e-08 -0.947797


Wall heat fluxes [W]
topAndBottom 0 0 0 0
left 2.6108 0 0 2.6108
right -2.50881 0 0 -2.50881
frontAndBack 0 0 0 0
sum 0.101987 0 0 0.101987

Time = 34

DILUPBiCG:  Solving for Ux, Initial residual = 0.0098693, Final residual = 2.6082e-06, No Iterations 2
DILUPBiCG:  Solving for Uy, Initial residual = 0.0144959, Final residual = 0.000141683, No Iterations 1
DICPCG:  Solving for p_rgh, Initial residual = 0.0210215, Final residual = 0.000136256, No Iterations 7
time step continuity errors : sum local = 0.000571567, global = 5.61159e-16, cumulative = -2.27814e-16
DILUPBiCG:  Solving for epsilon, Initial residual = 0.013818, Final residual = 1.05436e-05, No Iterations 2
DILUPBiCG:  Solving for k, Initial residual = 0.0392666, Final residual = 6.93763e-05, No Iterations 2
DICPCG:  Solving for G, Initial residual = 0.00334064, Final residual = 0.000197772, No Iterations 11
Before T+T solve
BiCG:  Solving for T+T, Initial residual = 0.00177387, Final residual = 0.000174996, No Iterations 2
Tres = -0.922863
TsRes = -0.0851905
ExecutionTime = 0.13 s



Wall heat fluxes [W]
movingWall -0.268424 4.14439e-15 0.273962 0.00553862
left 0.274493 2.42802e-15 1.21819 1.49268
right -0.575484 2.03465e-14 -1.84936 -2.42484
bottom -0.35288 0 0.357207 0.00432725
frontAndBack 0 0 0 0
sum -0.922295 2.69189e-14 -8.7275e-08 -0.922295


Wall heat fluxes [W]
topAndBottom 0 0 0 0
left 2.6074 0 0 2.6074
right -2.50403 0 0 -2.50403
frontAndBack 0 0 0 0
sum 0.103375 0 0 0.103375

Time = 35

DILUPBiCG:  Solving for Ux, Initial residual = 0.00917896, Final residual = 8.51251e-05, No Iterations 1
DILUPBiCG:  Solving for Uy, Initial residual = 0.013135, Final residual = 8.77617e-05, No Iterations 2
DICPCG:  Solving for p_rgh, Initial residual = 0.0183224, Final residual = 6.78552e-05, No Iterations 7
time step continuity errors : sum local = 0.000217038, global = -1.06409e-16, cumulative = -3.34222e-16
DILUPBiCG:  Solving for epsilon, Initial residual = 0.0131911, Final residual = 8.53146e-06, No Iterations 2
DILUPBiCG:  Solving for k, Initial residual = 0.0378103, Final residual = 7.00265e-05, No Iterations 2
DICPCG:  Solving for G, Initial residual = 0.00328011, Final residual = 0.000122495, No Iterations 11
Before T+T solve
BiCG:  Solving for T+T, Initial residual = 0.00174828, Final residual = 0.000168591, No Iterations 3
Tres = -0.900168
TsRes = -0.0686012
ExecutionTime = 0.13 s



Wall heat fluxes [W]
movingWall -0.263592 -2.04306e-15 0.268607 0.00501446
left 0.288012 2.35865e-15 1.2239 1.51191
right -0.572878 -5.19762e-15 -1.84678 -2.41965
bottom -0.349938 0 0.354266 0.00432821
frontAndBack 0 0 0 0
sum -0.898397 -4.88203e-15 -1.19042e-07 -0.898397


Wall heat fluxes [W]
topAndBottom 0 0 0 0
left 3.00697 0 0 3.00697
right -2.48695 0 0 -2.48695
frontAndBack 0 0 0 0
sum 0.520022 0 0 0.520022

Time = 36

DILUPBiCG:  Solving for Ux, Initial residual = 0.00844685, Final residual = 7.45443e-05, No Iterations 1
DILUPBiCG:  Solving for Uy, Initial residual = 0.0123345, Final residual = 1.46996e-05, No Iterations 2
DICPCG:  Solving for p_rgh, Initial residual = 0.0163061, Final residual = 7.29428e-05, No Iterations 12
time step continuity errors : sum local = 0.000197706, global = -1.73377e-16, cumulative = -5.07599e-16
DILUPBiCG:  Solving for epsilon, Initial residual = 0.0124746, Final residual = 8.06142e-06, No Iterations 2
DILUPBiCG:  Solving for k, Initial residual = 0.036374, Final residual = 7.64411e-05, No Iterations 2
DICPCG:  Solving for G, Initial residual = 0.00309078, Final residual = 0.000132079, No Iterations 11
Before T+T solve
BiCG:  Solving for T+T, Initial residual = 0.00173254, Final residual = 0.000164432, No Iterations 1
Tres = -0.876698
TsRes = -0.0745117
ExecutionTime = 0.13 s



Wall heat fluxes [W]
movingWall -0.259255 6.5969e-16 0.264047 0.00479115
left 0.300987 9.71208e-16 1.22936 1.53035
right -0.571335 -8.66622e-15 -1.84448 -2.41581
bottom -0.346941 0 0.35107 0.00412937
frontAndBack 0 0 0 0
sum -0.876544 -7.03532e-15 -9.87677e-08 -0.876544


Wall heat fluxes [W]
topAndBottom 0 0 0 0
left 2.46182 0 0 2.46182
right -2.4852 0 0 -2.4852
frontAndBack 0 0 0 0
sum -0.023381 0 0 -0.023381

Time = 37

DILUPBiCG:  Solving for Ux, Initial residual = 0.00760297, Final residual = 6.59822e-05, No Iterations 1
DILUPBiCG:  Solving for Uy, Initial residual = 0.0121071, Final residual = 1.50382e-05, No Iterations 2
DICPCG:  Solving for p_rgh, Initial residual = 0.0163316, Final residual = 0.000131008, No Iterations 11
time step continuity errors : sum local = 0.000362529, global = -6.74979e-17, cumulative = -5.75097e-16
DILUPBiCG:  Solving for epsilon, Initial residual = 0.011779, Final residual = 7.76557e-06, No Iterations 2
DILUPBiCG:  Solving for k, Initial residual = 0.034946, Final residual = 8.71901e-05, No Iterations 2
DICPCG:  Solving for G, Initial residual = 0.00393306, Final residual = 0.000368025, No Iterations 12
Before T+T solve
BiCG:  Solving for T+T, Initial residual = 0.00164842, Final residual = 0.000156184, No Iterations 2
Tres = -0.857425
TsRes = -0.0716777
ExecutionTime = 0.14 s



Wall heat fluxes [W]
movingWall -0.256179 -4.14751e-15 0.261453 0.00527492
left 0.312087 -1.45681e-15 1.23632 1.54841
right -0.568394 4.76686e-15 -1.84757 -2.41596
bottom -0.344351 0 0.349797 0.00544537
frontAndBack 0 0 0 0
sum -0.856837 -8.37461e-16 1.76352e-08 -0.856837


Wall heat fluxes [W]
topAndBottom 0 0 0 0
left 2.60407 0 0 2.60407
right -2.48039 0 0 -2.48039
frontAndBack 0 0 0 0
sum 0.123679 0 0 0.123679

Time = 38

DILUPBiCG:  Solving for Ux, Initial residual = 0.00820732, Final residual = 7.14129e-05, No Iterations 1
DILUPBiCG:  Solving for Uy, Initial residual = 0.010492, Final residual = 2.4936e-06, No Iterations 2
DICPCG:  Solving for p_rgh, Initial residual = 0.0150078, Final residual = 0.000119908, No Iterations 11
time step continuity errors : sum local = 0.000330652, global = -2.50934e-16, cumulative = -8.26031e-16
DILUPBiCG:  Solving for epsilon, Initial residual = 0.0111323, Final residual = 7.38148e-06, No Iterations 2
DILUPBiCG:  Solving for k, Initial residual = 0.0335111, Final residual = 9.97356e-05, No Iterations 2
DICPCG:  Solving for G, Initial residual = 0.00329013, Final residual = 0.000314145, No Iterations 10
Before T+T solve
BiCG:  Solving for T+T, Initial residual = 0.00164756, Final residual = 0.00015021, No Iterations 3
Tres = -0.83803
TsRes = -0.0589888
ExecutionTime = 0.14 s



Wall heat fluxes [W]
movingWall -0.252438 7.01268e-16 0.256447 0.00400898
left 0.32196 2.77488e-16 1.24186 1.56382
right -0.565733 -1.56031e-14 -1.84276 -2.40849
bottom -0.340274 0 0.34445 0.00417583
frontAndBack 0 0 0 0
sum -0.836485 -1.46243e-14 -7.74717e-07 -0.836486


Wall heat fluxes [W]
topAndBottom 0 0 0 0
left 2.9196 0 0 2.9196
right -2.46507 0 0 -2.46507
frontAndBack 0 0 0 0
sum 0.454536 0 0 0.454536

Time = 39

DILUPBiCG:  Solving for Ux, Initial residual = 0.00783166, Final residual = 6.8761e-05, No Iterations 1
DILUPBiCG:  Solving for Uy, Initial residual = 0.0114327, Final residual = 2.88748e-05, No Iterations 2
DICPCG:  Solving for p_rgh, Initial residual = 0.0147771, Final residual = 0.000104404, No Iterations 10
time step continuity errors : sum local = 0.00028801, global = 4.24311e-16, cumulative = -4.0172e-16
DILUPBiCG:  Solving for epsilon, Initial residual = 0.0104831, Final residual = 6.91735e-06, No Iterations 2
DILUPBiCG:  Solving for k, Initial residual = 0.0319437, Final residual = 0.000107795, No Iterations 2
DICPCG:  Solving for G, Initial residual = 0.00292068, Final residual = 0.000245265, No Iterations 11
Before T+T solve
BiCG:  Solving for T+T, Initial residual = 0.00163962, Final residual = 0.000143942, No Iterations 1
Tres = -0.818719
TsRes = -0.0649625
ExecutionTime = 0.14 s



Wall heat fluxes [W]
movingWall -0.24935 -6.87441e-16 0.253354 0.00400444
left 0.331185 1.87304e-15 1.24677 1.57796
right -0.563838 1.95102e-14 -1.84115 -2.40499
bottom -0.336591 0 0.341018 0.00442691
frontAndBack 0 0 0 0
sum -0.818595 2.06958e-14 -1.16704e-07 -0.818595


Wall heat fluxes [W]
topAndBottom 0 0 0 0
left 2.43987 0 0 2.43987
right -2.46364 0 0 -2.46364
frontAndBack 0 0 0 0
sum -0.023771 0 0 -0.023771

Time = 40

DILUPBiCG:  Solving for Ux, Initial residual = 0.00726767, Final residual = 7.07922e-05, No Iterations 1
DILUPBiCG:  Solving for Uy, Initial residual = 0.0115167, Final residual = 2.29933e-06, No Iterations 2
DICPCG:  Solving for p_rgh, Initial residual = 0.0162801, Final residual = 7.02778e-05, No Iterations 10
time step continuity errors : sum local = 0.000193323, global = 2.94609e-16, cumulative = -1.07112e-16
DILUPBiCG:  Solving for epsilon, Initial residual = 0.00981988, Final residual = 6.37617e-06, No Iterations 2
DILUPBiCG:  Solving for k, Initial residual = 0.0302891, Final residual = 0.000105577, No Iterations 2
DICPCG:  Solving for G, Initial residual = 0.00369357, Final residual = 0.000332719, No Iterations 12
Before T+T solve
BiCG:  Solving for T+T, Initial residual = 0.00156395, Final residual = 0.000155221, No Iterations 1
Tres = -0.802118
TsRes = -0.0684654
ExecutionTime = 0.14 s



Wall heat fluxes [W]
movingWall -0.247325 4.16445e-15 0.251762 0.00443693
left 0.339329 4.16232e-16 1.25317 1.5925
right -0.560507 9.10377e-15 -1.84352 -2.40402
bottom -0.333451 0 0.338587 0.00513631
frontAndBack 0 0 0 0
sum -0.801953 1.36844e-14 7.4009e-08 -0.801953


Wall heat fluxes [W]
topAndBottom 0 0 0 0
left 2.44825 0 0 2.44825
right -2.46214 0 0 -2.46214
frontAndBack 0 0 0 0
sum -0.0138867 0 0 -0.0138867

Time = 41

DILUPBiCG:  Solving for Ux, Initial residual = 0.00780787, Final residual = 6.81679e-05, No Iterations 1
DILUPBiCG:  Solving for Uy, Initial residual = 0.0107451, Final residual = 0.000101118, No Iterations 1
DICPCG:  Solving for p_rgh, Initial residual = 0.016865, Final residual = 6.85988e-05, No Iterations 10
time step continuity errors : sum local = 0.000189422, global = 2.91168e-18, cumulative = -1.042e-16
DILUPBiCG:  Solving for epsilon, Initial residual = 0.00919811, Final residual = 5.91679e-06, No Iterations 2
DILUPBiCG:  Solving for k, Initial residual = 0.0288, Final residual = 9.8218e-05, No Iterations 2
DICPCG:  Solving for G, Initial residual = 0.00293365, Final residual = 8.40514e-05, No Iterations 11
Before T+T solve
BiCG:  Solving for T+T, Initial residual = 0.00155201, Final residual = 0.000127143, No Iterations 3
Tres = -0.786155
TsRes = -0.0557948
ExecutionTime = 0.15 s



Wall heat fluxes [W]
movingWall -0.244407 -2.80204e-15 0.247814 0.00340686
left 0.346229 -6.9372e-17 1.25809 1.60432
right -0.55724 3.46783e-15 -1.83915 -2.39639
bottom -0.329068 0 0.333244 0.00417626
frontAndBack 0 0 0 0
sum -0.784486 5.96419e-16 -1.87222e-07 -0.784487


Wall heat fluxes [W]
topAndBottom 0 0 0 0
left 2.94754 0 0 2.94754
right -2.44854 0 0 -2.44854
frontAndBack 0 0 0 0
sum 0.499002 0 0 0.499002

Time = 42

DILUPBiCG:  Solving for Ux, Initial residual = 0.00768092, Final residual = 6.76489e-05, No Iterations 1
DILUPBiCG:  Solving for Uy, Initial residual = 0.0114559, Final residual = 0.000108916, No Iterations 1
DICPCG:  Solving for p_rgh, Initial residual = 0.0163584, Final residual = 0.000159701, No Iterations 6
time step continuity errors : sum local = 0.000626967, global = -1.2411e-16, cumulative = -2.2831e-16
DILUPBiCG:  Solving for epsilon, Initial residual = 0.00868792, Final residual = 5.5132e-06, No Iterations 2
DILUPBiCG:  Solving for k, Initial residual = 0.0274361, Final residual = 9.02003e-05, No Iterations 2
DICPCG:  Solving for G, Initial residual = 0.00226719, Final residual = 7.65994e-05, No Iterations 11
Before T+T solve
BiCG:  Solving for T+T, Initial residual = 0.00156337, Final residual = 0.00013609, No Iterations 1
Tres = -0.769381
TsRes = -0.0627324
ExecutionTime = 0.15 s



Wall heat fluxes [W]
movingWall -0.241782 1.91092e-17 0.245001 0.00321905
left 0.352557 8.32464e-16 1.26209 1.61465
right -0.555292 -7.37983e-15 -1.83599 -2.39128
bottom -0.324783 0 0.328898 0.00411467
frontAndBack 0 0 0 0
sum -0.769301 -6.52825e-15 -1.16074e-07 -0.769301


Wall heat fluxes [W]
topAndBottom 0 0 0 0
left 2.4114 0 0 2.4114
right -2.44729 0 0 -2.44729
frontAndBack 0 0 0 0
sum -0.0358956 0 0 -0.0358956

Time = 43

DILUPBiCG:  Solving for Ux, Initial residual = 0.00679522, Final residual = 1.10396e-06, No Iterations 2
DILUPBiCG:  Solving for Uy, Initial residual = 0.0115968, Final residual = 0.000106932, No Iterations 1
DICPCG:  Solving for p_rgh, Initial residual = 0.0174669, Final residual = 9.66502e-05, No Iterations 10
time step continuity errors : sum local = 0.000276117, global = 2.55963e-16, cumulative = 2.76526e-17
DILUPBiCG:  Solving for epsilon, Initial residual = 0.00823519, Final residual = 5.17574e-06, No Iterations 2
DILUPBiCG:  Solving for k, Initial residual = 0.0260236, Final residual = 8.08703e-05, No Iterations 2
DICPCG:  Solving for G, Initial residual = 0.00339074, Final residual = 0.000336635, No Iterations 12
Before T+T solve
BiCG:  Solving for T+T, Initial residual = 0.00150175, Final residual = 0.000148796, No Iterations 1
Tres = -0.755743
TsRes = -0.0659267
ExecutionTime = 0.15 s



Wall heat fluxes [W]
movingWall -0.240543 7.16808e-16 0.244616 0.00407239
left 0.358304 2.2199e-15 1.26811 1.62642
right -0.551717 1.04153e-14 -1.83946 -2.39117
bottom -0.321633 0 0.326726 0.00509331
frontAndBack 0 0 0 0
sum -0.75559 1.3352e-14 -7.80857e-09 -0.75559


Wall heat fluxes [W]
topAndBottom 0 0 0 0
left 2.43079 0 0 2.43079
right -2.4459 0 0 -2.4459
frontAndBack 0 0 0 0
sum -0.0151115 0 0 -0.0151115

Time = 44

DILUPBiCG:  Solving for Ux, Initial residual = 0.0075439, Final residual = 6.5897e-05, No Iterations 1
DILUPBiCG:  Solving for Uy, Initial residual = 0.0105302, Final residual = 1.33709e-06, No Iterations 2
DICPCG:  Solving for p_rgh, Initial residual = 0.0180427, Final residual = 0.000164266, No Iterations 5
time step continuity errors : sum local = 0.000586666, global = -2.81109e-16, cumulative = -2.53456e-16
DILUPBiCG:  Solving for epsilon, Initial residual = 0.00773326, Final residual = 4.87886e-06, No Iterations 2
DILUPBiCG:  Solving for k, Initial residual = 0.0245684, Final residual = 7.03459e-05, No Iterations 2
DICPCG:  Solving for G, Initial residual = 0.0028007, Final residual = 0.000111741, No Iterations 11
Before T+T solve
BiCG:  Solving for T+T, Initial residual = 0.00149333, Final residual = 0.00012734, No Iterations 3
Tres = -0.741803
TsRes = -0.0539774
ExecutionTime = 0.16 s



Wall heat fluxes [W]
movingWall -0.238076 4.16822e-15 0.241124 0.00304772
left 0.363391 -3.9542e-15 1.27277 1.63616
right -0.548224 -1.34526e-14 -1.83509 -2.38331
bottom -0.317283 0 0.3212 0.0039164
frontAndBack 0 0 0 0
sum -0.740192 -1.32386e-14 -2.047e-07 -0.740192


Wall heat fluxes [W]
topAndBottom 0 0 0 0
left 2.9142 0 0 2.9142
right -2.43267 0 0 -2.43267
frontAndBack 0 0 0 0
sum 0.481526 0 0 0.481526

Time = 45

DILUPBiCG:  Solving for Ux, Initial residual = 0.00743267, Final residual = 6.43482e-05, No Iterations 1
DILUPBiCG:  Solving for Uy, Initial residual = 0.0111332, Final residual = 0.000102876, No Iterations 1
DICPCG:  Solving for p_rgh, Initial residual = 0.0172855, Final residual = 0.000152243, No Iterations 5
time step continuity errors : sum local = 0.000549586, global = -5.58512e-17, cumulative = -3.09308e-16
DILUPBiCG:  Solving for epsilon, Initial residual = 0.00726538, Final residual = 4.61512e-06, No Iterations 2
DILUPBiCG:  Solving for k, Initial residual = 0.0231778, Final residual = 6.25713e-05, No Iterations 2
DICPCG:  Solving for G, Initial residual = 0.00211251, Final residual = 0.000201005, No Iterations 10
Before T+T solve
BiCG:  Solving for T+T, Initial residual = 0.00151231, Final residual = 0.000133023, No Iterations 1
Tres = -0.726936
TsRes = -0.0609759
ExecutionTime = 0.16 s



Wall heat fluxes [W]
movingWall -0.235817 -2.12778e-15 0.2387 0.0028823
left 0.368217 6.24348e-16 1.27643 1.64465
right -0.546003 2.99344e-18 -1.83218 -2.37818
bottom -0.313259 0 0.317045 0.00378606
frontAndBack 0 0 0 0
sum -0.726863 -1.50044e-15 -5.70462e-07 -0.726864


Wall heat fluxes [W]
topAndBottom 0 0 0 0
left 2.39488 0 0 2.39488
right -2.43148 0 0 -2.43148
frontAndBack 0 0 0 0
sum -0.0366055 0 0 -0.0366055

Time = 46

DILUPBiCG:  Solving for Ux, Initial residual = 0.00652002, Final residual = 6.40208e-05, No Iterations 1
DILUPBiCG:  Solving for Uy, Initial residual = 0.0111261, Final residual = 0.000104639, No Iterations 1
DICPCG:  Solving for p_rgh, Initial residual = 0.0180079, Final residual = 0.000166675, No Iterations 5
time step continuity errors : sum local = 0.000559248, global = 2.52257e-16, cumulative = -5.70507e-17
DILUPBiCG:  Solving for epsilon, Initial residual = 0.00681183, Final residual = 4.33964e-06, No Iterations 2
DILUPBiCG:  Solving for k, Initial residual = 0.0218716, Final residual = 5.60377e-05, No Iterations 2
DICPCG:  Solving for G, Initial residual = 0.00325267, Final residual = 0.000323551, No Iterations 12
Before T+T solve
BiCG:  Solving for T+T, Initial residual = 0.00144886, Final residual = 0.000119399, No Iterations 3
Tres = -0.715955
TsRes = -0.0469489
ExecutionTime = 0.16 s



Wall heat fluxes [W]
movingWall -0.234711 -1.62873e-17 0.238571 0.00385934
left 0.372784 -1.04058e-15 1.28204 1.65483
right -0.542276 1.43311e-14 -1.83573 -2.378
bottom -0.310376 0 0.315116 0.00473996
frontAndBack 0 0 0 0
sum -0.714579 1.32742e-14 -2.17341e-08 -0.714579


Wall heat fluxes [W]
topAndBottom 0 0 0 0
left 2.82905 0 0 2.82905
right -2.41854 0 0 -2.41854
frontAndBack 0 0 0 0
sum 0.410509 0 0 0.410509

Time = 47

DILUPBiCG:  Solving for Ux, Initial residual = 0.00724727, Final residual = 6.12923e-05, No Iterations 1
DILUPBiCG:  Solving for Uy, Initial residual = 0.00985555, Final residual = 1.42477e-06, No Iterations 2
DICPCG:  Solving for p_rgh, Initial residual = 0.0173148, Final residual = 0.000150287, No Iterations 5
time step continuity errors : sum local = 0.000444993, global = -2.56757e-17, cumulative = -8.27263e-17
DILUPBiCG:  Solving for epsilon, Initial residual = 0.00638532, Final residual = 4.09295e-06, No Iterations 2
DILUPBiCG:  Solving for k, Initial residual = 0.0205972, Final residual = 5.06366e-05, No Iterations 2
DICPCG:  Solving for G, Initial residual = 0.0026312, Final residual = 0.000241778, No Iterations 10
Before T+T solve
BiCG:  Solving for T+T, Initial residual = 0.0014722, Final residual = 0.0001244, No Iterations 1
Tres = -0.701618
TsRes = -0.0550708
ExecutionTime = 0.17 s



Wall heat fluxes [W]
movingWall -0.232481 -2.13443e-15 0.235207 0.00272656
left 0.377224 2.70551e-15 1.2864 1.66362
right -0.539676 -3.04168e-15 -1.8316 -2.37128
bottom -0.306612 0 0.309998 0.00338625
frontAndBack 0 0 0 0
sum -0.701544 -2.4706e-15 -7.82352e-07 -0.701545


Wall heat fluxes [W]
topAndBottom 0 0 0 0
left 2.38701 0 0 2.38701
right -2.41743 0 0 -2.41743
frontAndBack 0 0 0 0
sum -0.0304198 0 0 -0.0304198

Time = 48

DILUPBiCG:  Solving for Ux, Initial residual = 0.00649428, Final residual = 5.74118e-05, No Iterations 1
DILUPBiCG:  Solving for Uy, Initial residual = 0.0109089, Final residual = 0.000102012, No Iterations 1
DICPCG:  Solving for p_rgh, Initial residual = 0.0179046, Final residual = 7.3727e-05, No Iterations 6
time step continuity errors : sum local = 0.00036432, global = 1.96406e-16, cumulative = 1.13679e-16
DILUPBiCG:  Solving for epsilon, Initial residual = 0.00597449, Final residual = 3.8549e-06, No Iterations 2
DILUPBiCG:  Solving for k, Initial residual = 0.0194263, Final residual = 4.64415e-05, No Iterations 2
DICPCG:  Solving for G, Initial residual = 0.00293821, Final residual = 0.000285327, No Iterations 12
Before T+T solve
BiCG:  Solving for T+T, Initial residual = 0.00140802, Final residual = 0.000137123, No Iterations 1
Tres = -0.689551
TsRes = -0.058717
ExecutionTime = 0.17 s



Wall heat fluxes [W]
movingWall -0.231286 -6.89952e-16 0.234778 0.00349128
left 0.38166 9.71208e-16 1.29139 1.67305
right -0.535748 8.68906e-15 -1.83443 -2.37017
bottom -0.304036 0 0.308254 0.00421831
frontAndBack 0 0 0 0
sum -0.68941 8.97032e-15 -1.56207e-09 -0.68941


Wall heat fluxes [W]
topAndBottom 0 0 0 0
left 2.40422 0 0 2.40422
right -2.41628 0 0 -2.41628
frontAndBack 0 0 0 0
sum -0.0120592 0 0 -0.0120592

Time = 49

DILUPBiCG:  Solving for Ux, Initial residual = 0.007104, Final residual = 5.96922e-05, No Iterations 1
DILUPBiCG:  Solving for Uy, Initial residual = 0.00993472, Final residual = 3.89605e-06, No Iterations 2
DICPCG:  Solving for p_rgh, Initial residual = 0.0178248, Final residual = 5.77094e-05, No Iterations 11
time step continuity errors : sum local = 0.00018082, global = 1.77877e-16, cumulative = 2.91556e-16
DILUPBiCG:  Solving for epsilon, Initial residual = 0.00561466, Final residual = 3.63455e-06, No Iterations 2
DILUPBiCG:  Solving for k, Initial residual = 0.0183507, Final residual = 4.22667e-05, No Iterations 2
DICPCG:  Solving for G, Initial residual = 0.00235589, Final residual = 0.000158819, No Iterations 10
Before T+T solve
BiCG:  Solving for T+T, Initial residual = 0.00139974, Final residual = 0.000135317, No Iterations 3
Tres = -0.677029
TsRes = -0.0496374
ExecutionTime = 0.17 s



Wall heat fluxes [W]
movingWall -0.228958 6.25595e-18 0.231706 0.00274783
left 0.385978 5.54976e-16 1.2953 1.68128
right -0.531946 1.04287e-14 -1.83074 -2.36269
bottom -0.300647 0 0.303734 0.00308715
frontAndBack 0 0 0 0
sum -0.675574 1.099e-14 -3.79615e-07 -0.675574


Wall heat fluxes [W]
topAndBottom 0 0 0 0
left 2.84 0 0 2.84
right -2.40588 0 0 -2.40588
frontAndBack 0 0 0 0
sum 0.43412 0 0 0.43412

Time = 50

DILUPBiCG:  Solving for Ux, Initial residual = 0.00690738, Final residual = 5.65458e-05, No Iterations 1
DILUPBiCG:  Solving for Uy, Initial residual = 0.0102433, Final residual = 9.21386e-05, No Iterations 1
DICPCG:  Solving for p_rgh, Initial residual = 0.0162726, Final residual = 9.09185e-05, No Iterations 6
time step continuity errors : sum local = 0.000444571, global = 2.40346e-16, cumulative = 5.31902e-16
DILUPBiCG:  Solving for epsilon, Initial residual = 0.00536487, Final residual = 3.438e-06, No Iterations 2
DILUPBiCG:  Solving for k, Initial residual = 0.0172744, Final residual = 3.91855e-05, No Iterations 2
DICPCG:  Solving for G, Initial residual = 0.0018093, Final residual = 7.86584e-05, No Iterations 11
Before T+T solve
BiCG:  Solving for T+T, Initial residual = 0.00143443, Final residual = 0.000127758, No Iterations 1
Tres = -0.663435
TsRes = -0.056448
ExecutionTime = 0.18 s



Wall heat fluxes [W]
movingWall -0.226714 -2.12324e-15 0.229294 0.00258024
left 0.390355 4.16232e-15 1.29837 1.68873
right -0.529332 8.69391e-15 -1.82831 -2.35764
bottom -0.297689 0 0.300645 0.00295596
frontAndBack 0 0 0 0
sum -0.663379 1.0733e-14 -2.49818e-09 -0.663379


Wall heat fluxes [W]
topAndBottom 0 0 0 0
left 2.36693 0 0 2.36693
right -2.40481 0 0 -2.40481
frontAndBack 0 0 0 0
sum -0.0378855 0 0 -0.0378855

Time = 51

DILUPBiCG:  Solving for Ux, Initial residual = 0.00618608, Final residual = 5.27148e-05, No Iterations 1
DILUPBiCG:  Solving for Uy, Initial residual = 0.0100548, Final residual = 9.40953e-05, No Iterations 1
DICPCG:  Solving for p_rgh, Initial residual = 0.0162182, Final residual = 6.57528e-05, No Iterations 11
time step continuity errors : sum local = 0.000212217, global = -1.45584e-18, cumulative = 5.30446e-16
DILUPBiCG:  Solving for epsilon, Initial residual = 0.00511061, Final residual = 3.22237e-06, No Iterations 2
DILUPBiCG:  Solving for k, Initial residual = 0.0162864, Final residual = 3.70135e-05, No Iterations 2
DICPCG:  Solving for G, Initial residual = 0.00272596, Final residual = 0.000250676, No Iterations 12
Before T+T solve
BiCG:  Solving for T+T, Initial residual = 0.00136047, Final residual = 0.000123782, No Iterations 3
Tres = -0.65314
TsRes = -0.0436044
ExecutionTime = 0.18 s



Wall heat fluxes [W]
movingWall -0.225424 5.63707e-15 0.228978 0.00355354
left 0.394766 -4.16232e-16 1.30319 1.69796
right -0.525443 -3.91212e-15 -1.83175 -2.3572
bottom -0.295778 0 0.299583 0.00380523
frontAndBack 0 0 0 0
sum -0.651879 1.30871e-15 2.91536e-08 -0.651879


Wall heat fluxes [W]
topAndBottom 0 0 0 0
left 2.76862 0 0 2.76862
right -2.39314 0 0 -2.39314
frontAndBack 0 0 0 0
sum 0.375473 0 0 0.375473

Time = 52

DILUPBiCG:  Solving for Ux, Initial residual = 0.00678546, Final residual = 5.47483e-05, No Iterations 1
DILUPBiCG:  Solving for Uy, Initial residual = 0.0086338, Final residual = 5.24795e-06, No Iterations 2
DICPCG:  Solving for p_rgh, Initial residual = 0.0148541, Final residual = 0.000115235, No Iterations 6
time step continuity errors : sum local = 0.000558369, global = -1.68943e-16, cumulative = 3.61503e-16
DILUPBiCG:  Solving for epsilon, Initial residual = 0.00486057, Final residual = 3.0133e-06, No Iterations 2
DILUPBiCG:  Solving for k, Initial residual = 0.0153876, Final residual = 3.56394e-05, No Iterations 2
DICPCG:  Solving for G, Initial residual = 0.00222389, Final residual = 5.56878e-05, No Iterations 10
Before T+T solve
BiCG:  Solving for T+T, Initial residual = 0.00139143, Final residual = 0.000119526, No Iterations 1
Tres = -0.639692
TsRes = -0.051195
ExecutionTime = 0.18 s



Wall heat fluxes [W]
movingWall -0.223068 -1.00949e-15 0.225578 0.00251029
left 0.399283 -2.49739e-15 1.30689 1.70618
right -0.522668 -2.17405e-15 -1.82815 -2.35082
bottom -0.29318 0 0.295681 0.00250135
frontAndBack 0 0 0 0
sum -0.639633 -5.68093e-15 1.2122e-07 -0.639633


Wall heat fluxes [W]
topAndBottom 0 0 0 0
left 2.36062 0 0 2.36062
right -2.39212 0 0 -2.39212
frontAndBack 0 0 0 0
sum -0.0314976 0 0 -0.0314976

Time = 53

DILUPBiCG:  Solving for Ux, Initial residual = 0.00615169, Final residual = 5.16851e-05, No Iterations 1
DILUPBiCG:  Solving for Uy, Initial residual = 0.00965272, Final residual = 9.24036e-05, No Iterations 1
DICPCG:  Solving for p_rgh, Initial residual = 0.0148091, Final residual = 7.37415e-05, No Iterations 11
time step continuity errors : sum local = 0.000239183, global = 1.26526e-16, cumulative = 4.88028e-16
DILUPBiCG:  Solving for epsilon, Initial residual = 0.00460571, Final residual = 2.80684e-06, No Iterations 2
DILUPBiCG:  Solving for k, Initial residual = 0.014598, Final residual = 3.4875e-05, No Iterations 2
DICPCG:  Solving for G, Initial residual = 0.00241369, Final residual = 0.000228514, No Iterations 12
Before T+T solve
BiCG:  Solving for T+T, Initial residual = 0.00131806, Final residual = 0.000130465, No Iterations 1
Tres = -0.628321
TsRes = -0.0542299
ExecutionTime = 0.19 s



Wall heat fluxes [W]
movingWall -0.221613 -1.03604e-15 0.224865 0.00325213
left 0.403859 1.17932e-15 1.31118 1.71503
right -0.51877 6.95911e-15 -1.83103 -2.3498
bottom -0.29167 0 0.294987 0.00331675
frontAndBack 0 0 0 0
sum -0.628194 7.10239e-15 1.70815e-08 -0.628194


Wall heat fluxes [W]
topAndBottom 0 0 0 0
left 2.37895 0 0 2.37895
right -2.39107 0 0 -2.39107
frontAndBack 0 0 0 0
sum -0.0121212 0 0 -0.0121212

Time = 54

DILUPBiCG:  Solving for Ux, Initial residual = 0.00665178, Final residual = 5.44171e-05, No Iterations 1
DILUPBiCG:  Solving for Uy, Initial residual = 0.00851888, Final residual = 9.76722e-07, No Iterations 2
DICPCG:  Solving for p_rgh, Initial residual = 0.0143689, Final residual = 0.000125069, No Iterations 6
time step continuity errors : sum local = 0.000613232, global = 1.36586e-16, cumulative = 6.24614e-16
DILUPBiCG:  Solving for epsilon, Initial residual = 0.00434573, Final residual = 2.62651e-06, No Iterations 2
DILUPBiCG:  Solving for k, Initial residual = 0.0137707, Final residual = 3.41755e-05, No Iterations 2
DICPCG:  Solving for G, Initial residual = 0.00198986, Final residual = 6.88039e-05, No Iterations 11
Before T+T solve
BiCG:  Solving for T+T, Initial residual = 0.00131018, Final residual = 4.92722e-05, No Iterations 4
Tres = -0.616566
TsRes = -0.0437006
ExecutionTime = 0.19 s



Wall heat fluxes [W]
movingWall -0.219155 -5.80114e-18 0.221679 0.00252456
left 0.408538 -3.88483e-15 1.31449 1.72302
right -0.515064 1.39151e-14 -1.82784 -2.3429
bottom -0.289442 0 0.291671 0.00222882
frontAndBack 0 0 0 0
sum -0.615123 1.00244e-14 -7.6111e-08 -0.615123


Wall heat fluxes [W]
topAndBottom 0 0 0 0
left 2.81615 0 0 2.81615
right -2.38016 0 0 -2.38016
frontAndBack 0 0 0 0
sum 0.435986 0 0 0.435986

Time = 55

DILUPBiCG:  Solving for Ux, Initial residual = 0.00653254, Final residual = 5.44616e-05, No Iterations 1
DILUPBiCG:  Solving for Uy, Initial residual = 0.00903096, Final residual = 9.88533e-07, No Iterations 2
DICPCG:  Solving for p_rgh, Initial residual = 0.013285, Final residual = 7.90372e-05, No Iterations 11
time step continuity errors : sum local = 0.000256321, global = -1.68877e-16, cumulative = 4.55737e-16
DILUPBiCG:  Solving for epsilon, Initial residual = 0.00408844, Final residual = 2.47292e-06, No Iterations 2
DILUPBiCG:  Solving for k, Initial residual = 0.0129868, Final residual = 3.37084e-05, No Iterations 2
DICPCG:  Solving for G, Initial residual = 0.00143857, Final residual = 0.000120635, No Iterations 10
Before T+T solve
BiCG:  Solving for T+T, Initial residual = 0.00131352, Final residual = 0.000119581, No Iterations 1
Tres = -0.603746
TsRes = -0.0495271
ExecutionTime = 0.19 s



Wall heat fluxes [W]
movingWall -0.216711 -3.59471e-16 0.219152 0.00244092
left 0.413207 -6.38222e-15 1.317 1.73021
right -0.512697 1.7395e-15 -1.82588 -2.33858
bottom -0.287527 0 0.289732 0.00220504
frontAndBack 0 0 0 0
sum -0.603728 -5.0022e-15 -1.84287e-07 -0.603728


Wall heat fluxes [W]
topAndBottom 0 0 0 0
left 2.33533 0 0 2.33533
right -2.37906 0 0 -2.37906
frontAndBack 0 0 0 0
sum -0.0437277 0 0 -0.0437277

Time = 56

DILUPBiCG:  Solving for Ux, Initial residual = 0.00568612, Final residual = 4.76985e-05, No Iterations 1
DILUPBiCG:  Solving for Uy, Initial residual = 0.00874168, Final residual = 8.2361e-05, No Iterations 1
DICPCG:  Solving for p_rgh, Initial residual = 0.0126218, Final residual = 5.91855e-05, No Iterations 11
time step continuity errors : sum local = 0.000192936, global = -2.10699e-16, cumulative = 2.45038e-16
DILUPBiCG:  Solving for epsilon, Initial residual = 0.00383893, Final residual = 2.30161e-06, No Iterations 2
DILUPBiCG:  Solving for k, Initial residual = 0.012217, Final residual = 3.34666e-05, No Iterations 2
DICPCG:  Solving for G, Initial residual = 0.00250622, Final residual = 0.000243244, No Iterations 12
Before T+T solve
BiCG:  Solving for T+T, Initial residual = 0.00126794, Final residual = 0.000125615, No Iterations 1
Tres = -0.593181
TsRes = -0.0513927
ExecutionTime = 0.2 s



Wall heat fluxes [W]
movingWall -0.215341 -1.43556e-15 0.21866 0.0033194
left 0.418001 -6.24348e-16 1.32136 1.73936
right -0.509039 -1.08802e-14 -1.82973 -2.33877
bottom -0.286655 0 0.289711 0.00305567
frontAndBack 0 0 0 0
sum -0.593034 -1.29401e-14 -9.38132e-09 -0.593034


Wall heat fluxes [W]
topAndBottom 0 0 0 0
left 2.37533 0 0 2.37533
right -2.37787 0 0 -2.37787
frontAndBack 0 0 0 0
sum -0.00254527 0 0 -0.00254527

Time = 57

DILUPBiCG:  Solving for Ux, Initial residual = 0.00636957, Final residual = 5.29289e-05, No Iterations 1
DILUPBiCG:  Solving for Uy, Initial residual = 0.00739794, Final residual = 9.76153e-07, No Iterations 2
DICPCG:  Solving for p_rgh, Initial residual = 0.01237, Final residual = 0.000104522, No Iterations 6
time step continuity errors : sum local = 0.000508025, global = -4.49986e-17, cumulative = 2.00039e-16
DILUPBiCG:  Solving for epsilon, Initial residual = 0.00359521, Final residual = 2.15251e-06, No Iterations 2
DILUPBiCG:  Solving for k, Initial residual = 0.0114733, Final residual = 3.31381e-05, No Iterations 2
DICPCG:  Solving for G, Initial residual = 0.0019475, Final residual = 5.51596e-05, No Iterations 11
Before T+T solve
BiCG:  Solving for T+T, Initial residual = 0.00125461, Final residual = 4.71503e-05, No Iterations 4
Tres = -0.581837
TsRes = -0.0406864
ExecutionTime = 0.2 s



Wall heat fluxes [W]
movingWall -0.212775 -2.46177e-15 0.215183 0.00240791
left 0.422822 -2.63614e-15 1.32451 1.74733
right -0.50568 3.48208e-15 -1.82645 -2.33213
bottom -0.284857 0 0.286759 0.00190198
frontAndBack 0 0 0 0
sum -0.58049 -1.61583e-15 -1.16771e-07 -0.58049


Wall heat fluxes [W]
topAndBottom 0 0 0 0
left 2.77422 0 0 2.77422
right -2.36697 0 0 -2.36697
frontAndBack 0 0 0 0
sum 0.407255 0 0 0.407255

Time = 58

DILUPBiCG:  Solving for Ux, Initial residual = 0.00618851, Final residual = 5.22035e-05, No Iterations 1
DILUPBiCG:  Solving for Uy, Initial residual = 0.00838773, Final residual = 1.29161e-06, No Iterations 2
DICPCG:  Solving for p_rgh, Initial residual = 0.0120595, Final residual = 6.89434e-05, No Iterations 11
time step continuity errors : sum local = 0.000223473, global = -3.36695e-16, cumulative = -1.36656e-16
DILUPBiCG:  Solving for epsilon, Initial residual = 0.00336834, Final residual = 2.02251e-06, No Iterations 2
DILUPBiCG:  Solving for k, Initial residual = 0.0107877, Final residual = 3.30819e-05, No Iterations 2
DICPCG:  Solving for G, Initial residual = 0.00132561, Final residual = 5.81665e-05, No Iterations 11
Before T+T solve
BiCG:  Solving for T+T, Initial residual = 0.00125549, Final residual = 0.000113347, No Iterations 1
Tres = -0.569625
TsRes = -0.0459005
ExecutionTime = 0.2 s



Wall heat fluxes [W]
movingWall -0.210315 -4.2746e-15 0.212701 0.00238592
left 0.427625 -4.57855e-15 1.32684 1.75446
right -0.503582 -4.78875e-15 -1.82482 -2.3284
bottom -0.283338 0 0.285283 0.00194577
frontAndBack 0 0 0 0
sum -0.56961 -1.36419e-14 -5.53491e-08 -0.56961


Wall heat fluxes [W]
topAndBottom 0 0 0 0
left 2.32509 0 0 2.32509
right -2.36598 0 0 -2.36598
frontAndBack 0 0 0 0
sum -0.0408888 0 0 -0.0408888

Time = 59

DILUPBiCG:  Solving for Ux, Initial residual = 0.00537548, Final residual = 4.56103e-05, No Iterations 1
DILUPBiCG:  Solving for Uy, Initial residual = 0.0080494, Final residual = 1.61905e-06, No Iterations 2
DICPCG:  Solving for p_rgh, Initial residual = 0.0114535, Final residual = 4.76019e-05, No Iterations 11
time step continuity errors : sum local = 0.000150667, global = 1.23084e-16, cumulative = -1.35717e-17
DILUPBiCG:  Solving for epsilon, Initial residual = 0.00319184, Final residual = 1.89037e-06, No Iterations 2
DILUPBiCG:  Solving for k, Initial residual = 0.0101794, Final residual = 3.32825e-05, No Iterations 2
DICPCG:  Solving for G, Initial residual = 0.00230243, Final residual = 0.000225631, No Iterations 12
[...]
DILUPBiCG:  Solving for k, Initial residual = 3.24863e-11, Final residual = 7.16063e-14, No Iterations 2
DICPCG:  Solving for G, Initial residual = 6.06942e-12, Final residual = 3.03757e-13, No Iterations 11
Before T+T solve
BiCG:  Solving for T+T, Initial residual = 4.22514e-12, Final residual = 4.13429e-13, No Iterations 1
Tres = -1.5438e-09
TsRes = -1.18598e-10
ExecutionTime = 2.38 s



Wall heat fluxes [W]
movingWall -0.0860106 -9.41778e-17 0.0860106 8.94773e-12
left 0.66378 6.9372e-16 1.50101 2.16479
right -0.376121 -3.5138e-15 -1.78867 -2.16479
bottom -0.201649 0 0.201649 6.99762e-12
frontAndBack 0 0 0 0
sum -1.54376e-09 -2.91426e-15 2.77445e-13 -1.54349e-09


Wall heat fluxes [W]
topAndBottom 0 0 0 0
left 2.16479 0 0 2.16479
right -2.16479 0 0 -2.16479
frontAndBack 0 0 0 0
sum -1.0843e-10 0 0 -1.0843e-10

Time = 987

DILUPBiCG:  Solving for Ux, Initial residual = 1.5698e-11, Final residual = 3.49838e-15, No Iterations 2
DILUPBiCG:  Solving for Uy, Initial residual = 2.15767e-11, Final residual = 8.00818e-14, No Iterations 2
DICPCG:  Solving for p_rgh, Initial residual = 3.45885e-11, Final residual = 2.89545e-13, No Iterations 5
time step continuity errors : sum local = 1.563e-12, global = -2.33463e-16, cumulative = 5.59513e-15
DILUPBiCG:  Solving for epsilon, Initial residual = 1.57147e-11, Final residual = 4.81625e-14, No Iterations 2
DILUPBiCG:  Solving for k, Initial residual = 3.19032e-11, Final residual = 6.94562e-14, No Iterations 2
DICPCG:  Solving for G, Initial residual = 7.89098e-12, Final residual = 6.89201e-13, No Iterations 12
Before T+T solve
BiCG:  Solving for T+T, Initial residual = 4.06129e-12, Final residual = 4.00699e-13, No Iterations 2
Tres = -1.51354e-09
TsRes = -1.13586e-10
ExecutionTime = 2.39 s



Wall heat fluxes [W]
movingWall -0.0860106 -1.89434e-15 0.0860106 1.01646e-11
left 0.66378 -8.60213e-15 1.50101 2.16479
right -0.376121 4.39069e-15 -1.78867 -2.16479
bottom -0.201649 0 0.201649 8.43681e-12
frontAndBack 0 0 0 0
sum -1.51237e-09 -6.10578e-15 3.88856e-13 -1.51199e-09


Wall heat fluxes [W]
topAndBottom 0 0 0 0
left 2.16479 0 0 2.16479
right -2.16479 0 0 -2.16479
frontAndBack 0 0 0 0
sum 2.74353e-10 0 0 2.74353e-10

Time = 988

DILUPBiCG:  Solving for Ux, Initial residual = 1.69405e-11, Final residual = 3.41283e-15, No Iterations 2
DILUPBiCG:  Solving for Uy, Initial residual = 1.95152e-11, Final residual = 8.84043e-15, No Iterations 2
DICPCG:  Solving for p_rgh, Initial residual = 3.45265e-11, Final residual = 2.739e-13, No Iterations 10
time step continuity errors : sum local = 9.83875e-13, global = 8.57621e-17, cumulative = 5.68089e-15
DILUPBiCG:  Solving for epsilon, Initial residual = 1.53778e-11, Final residual = 4.5709e-14, No Iterations 2
DILUPBiCG:  Solving for k, Initial residual = 3.11038e-11, Final residual = 6.86696e-14, No Iterations 2
DICPCG:  Solving for G, Initial residual = 6.78269e-12, Final residual = 2.71082e-13, No Iterations 11
Before T+T solve
BiCG:  Solving for T+T, Initial residual = 4.15949e-12, Final residual = 1.20486e-13, No Iterations 4
Tres = -1.48116e-09
TsRes = -9.49713e-11
ExecutionTime = 2.39 s



Wall heat fluxes [W]
movingWall -0.0860106 1.44064e-16 0.0860106 7.87637e-12
left 0.66378 2.63614e-15 1.50101 2.16479
right -0.376121 8.78494e-16 -1.78867 -2.16479
bottom -0.201649 0 0.201649 5.76139e-12
frontAndBack 0 0 0 0
sum -1.47843e-09 3.65869e-15 4.86972e-13 -1.47794e-09


Wall heat fluxes [W]
topAndBottom 0 0 0 0
left 2.16479 0 0 2.16479
right -2.16479 0 0 -2.16479
frontAndBack 0 0 0 0
sum 8.13741e-10 0 0 8.13741e-10

Time = 989

DILUPBiCG:  Solving for Ux, Initial residual = 1.59905e-11, Final residual = 3.38775e-15, No Iterations 2
DILUPBiCG:  Solving for Uy, Initial residual = 2.12897e-11, Final residual = 1.23731e-14, No Iterations 2
DICPCG:  Solving for p_rgh, Initial residual = 3.33714e-11, Final residual = 2.17695e-13, No Iterations 5
time step continuity errors : sum local = 1.0646e-12, global = 1.11173e-17, cumulative = 5.69201e-15
DILUPBiCG:  Solving for epsilon, Initial residual = 1.50257e-11, Final residual = 4.50213e-14, No Iterations 2
DILUPBiCG:  Solving for k, Initial residual = 3.04731e-11, Final residual = 6.71664e-14, No Iterations 2
DICPCG:  Solving for G, Initial residual = 5.92328e-12, Final residual = 2.15664e-13, No Iterations 11
Before T+T solve
BiCG:  Solving for T+T, Initial residual = 3.96241e-12, Final residual = 3.87422e-13, No Iterations 1
Tres = -1.44808e-09
TsRes = -1.11155e-10
ExecutionTime = 2.39 s



Wall heat fluxes [W]
movingWall -0.0860106 6.38266e-16 0.0860106 8.35038e-12
left 0.66378 1.2487e-15 1.50101 2.16479
right -0.376121 3.09265e-19 -1.78867 -2.16479
bottom -0.201649 0 0.201649 6.51468e-12
frontAndBack 0 0 0 0
sum -1.44805e-09 1.88727e-15 8.00193e-14 -1.44797e-09


Wall heat fluxes [W]
topAndBottom 0 0 0 0
left 2.16479 0 0 2.16479
right -2.16479 0 0 -2.16479
frontAndBack 0 0 0 0
sum -1.01359e-10 0 0 -1.01359e-10

Time = 990

DILUPBiCG:  Solving for Ux, Initial residual = 1.47273e-11, Final residual = 3.28155e-15, No Iterations 2
DILUPBiCG:  Solving for Uy, Initial residual = 2.02888e-11, Final residual = 5.84471e-14, No Iterations 2
DICPCG:  Solving for p_rgh, Initial residual = 3.2458e-11, Final residual = 2.71397e-13, No Iterations 5
time step continuity errors : sum local = 1.466e-12, global = -5.55865e-17, cumulative = 5.63643e-15
DILUPBiCG:  Solving for epsilon, Initial residual = 1.47407e-11, Final residual = 4.51637e-14, No Iterations 2
DILUPBiCG:  Solving for k, Initial residual = 2.99262e-11, Final residual = 6.51474e-14, No Iterations 2
DICPCG:  Solving for G, Initial residual = 7.75768e-12, Final residual = 6.5141e-13, No Iterations 12
Before T+T solve
BiCG:  Solving for T+T, Initial residual = 3.80775e-12, Final residual = 3.74814e-13, No Iterations 2
Tres = -1.41975e-09
TsRes = -1.06621e-10
ExecutionTime = 2.39 s



Wall heat fluxes [W]
movingWall -0.0860106 -2.72894e-15 0.0860106 9.56112e-12
left 0.66378 8.32464e-16 1.50101 2.16479
right -0.376121 8.77086e-16 -1.78867 -2.16479
bottom -0.201649 0 0.201649 7.94614e-12
frontAndBack 0 0 0 0
sum -1.41866e-09 -1.01938e-15 4.31294e-13 -1.41823e-09


Wall heat fluxes [W]
topAndBottom 0 0 0 0
left 2.16479 0 0 2.16479
right -2.16479 0 0 -2.16479
frontAndBack 0 0 0 0
sum 2.56106e-10 0 0 2.56106e-10

Time = 991

DILUPBiCG:  Solving for Ux, Initial residual = 1.58896e-11, Final residual = 3.2015e-15, No Iterations 2
DILUPBiCG:  Solving for Uy, Initial residual = 1.82762e-11, Final residual = 8.15403e-15, No Iterations 2
DICPCG:  Solving for p_rgh, Initial residual = 3.23769e-11, Final residual = 2.56429e-13, No Iterations 10
time step continuity errors : sum local = 9.21778e-13, global = -1.65701e-16, cumulative = 5.47072e-15
DILUPBiCG:  Solving for epsilon, Initial residual = 1.44249e-11, Final residual = 4.28623e-14, No Iterations 2
DILUPBiCG:  Solving for k, Initial residual = 2.91767e-11, Final residual = 6.44079e-14, No Iterations 2
DICPCG:  Solving for G, Initial residual = 6.48709e-12, Final residual = 2.69879e-13, No Iterations 11
Before T+T solve
BiCG:  Solving for T+T, Initial residual = 3.90045e-12, Final residual = 1.13738e-13, No Iterations 4
Tres = -1.3895e-09
TsRes = -8.93239e-11
ExecutionTime = 2.4 s



Wall heat fluxes [W]
movingWall -0.0860106 -7.46722e-16 0.0860106 7.44749e-12
left 0.66378 -3.05237e-15 1.50101 2.16479
right -0.376121 -3.51191e-15 -1.78867 -2.16479
bottom -0.201649 0 0.201649 5.46613e-12
frontAndBack 0 0 0 0
sum -1.38692e-09 -7.311e-15 9.74359e-13 -1.38595e-09


Wall heat fluxes [W]
topAndBottom 0 0 0 0
left 2.16479 0 0 2.16479
right -2.16479 0 0 -2.16479
frontAndBack 0 0 0 0
sum 7.65219e-10 0 0 7.65219e-10

Time = 992

DILUPBiCG:  Solving for Ux, Initial residual = 1.50017e-11, Final residual = 3.17758e-15, No Iterations 2
DILUPBiCG:  Solving for Uy, Initial residual = 1.99086e-11, Final residual = 1.22003e-14, No Iterations 2
DICPCG:  Solving for p_rgh, Initial residual = 3.12786e-11, Final residual = 2.04238e-13, No Iterations 5
time step continuity errors : sum local = 9.99819e-13, global = -1.98523e-16, cumulative = 5.2722e-15
DILUPBiCG:  Solving for epsilon, Initial residual = 1.40942e-11, Final residual = 4.22136e-14, No Iterations 2
DILUPBiCG:  Solving for k, Initial residual = 2.85843e-11, Final residual = 6.30031e-14, No Iterations 2
DICPCG:  Solving for G, Initial residual = 5.70121e-12, Final residual = 2.38948e-13, No Iterations 11
Before T+T solve
BiCG:  Solving for T+T, Initial residual = 3.7183e-12, Final residual = 3.6395e-13, No Iterations 1
Tres = -1.3583e-09
TsRes = -1.04303e-10
ExecutionTime = 2.4 s



Wall heat fluxes [W]
movingWall -0.0860106 -5.05584e-16 0.0860106 7.74519e-12
left 0.66378 -4.57855e-15 1.50101 2.16479
right -0.376121 -1.7558e-15 -1.78867 -2.16479
bottom -0.201649 0 0.201649 6.01583e-12
frontAndBack 0 0 0 0
sum -1.35827e-09 -6.83993e-15 -8.49043e-14 -1.35836e-09


Wall heat fluxes [W]
topAndBottom 0 0 0 0
left 2.16479 0 0 2.16479
right -2.16479 0 0 -2.16479
frontAndBack 0 0 0 0
sum -9.57199e-11 0 0 -9.57199e-11

Time = 993

DILUPBiCG:  Solving for Ux, Initial residual = 1.38113e-11, Final residual = 3.07831e-15, No Iterations 2
DILUPBiCG:  Solving for Uy, Initial residual = 1.9127e-11, Final residual = 3.86411e-14, No Iterations 2
DICPCG:  Solving for p_rgh, Initial residual = 3.04689e-11, Final residual = 2.54773e-13, No Iterations 5
time step continuity errors : sum local = 1.37697e-12, global = -2.5411e-17, cumulative = 5.24679e-15
DILUPBiCG:  Solving for epsilon, Initial residual = 1.38262e-11, Final residual = 4.23737e-14, No Iterations 2
DILUPBiCG:  Solving for k, Initial residual = 2.80712e-11, Final residual = 6.11118e-14, No Iterations 2
DICPCG:  Solving for G, Initial residual = 7.1094e-12, Final residual = 5.8575e-13, No Iterations 12
Before T+T solve
BiCG:  Solving for T+T, Initial residual = 3.57344e-12, Final residual = 3.52087e-13, No Iterations 2
Tres = -1.3318e-09
TsRes = -9.98647e-11
ExecutionTime = 2.4 s



Wall heat fluxes [W]
movingWall -0.0860106 2.31161e-15 0.0860106 9.01117e-12
left 0.66378 -4.43981e-15 1.50101 2.16479
right -0.376121 3.07292e-15 -1.78867 -2.16479
bottom -0.201649 0 0.201649 7.49845e-12
frontAndBack 0 0 0 0
sum -1.33077e-09 9.44721e-16 5.29604e-13 -1.33024e-09


Wall heat fluxes [W]
topAndBottom 0 0 0 0
left 2.16479 0 0 2.16479
right -2.16479 0 0 -2.16479
frontAndBack 0 0 0 0
sum 2.41043e-10 0 0 2.41043e-10

Time = 994

DILUPBiCG:  Solving for Ux, Initial residual = 1.49053e-11, Final residual = 3.00293e-15, No Iterations 2
DILUPBiCG:  Solving for Uy, Initial residual = 1.71006e-11, Final residual = 7.46979e-15, No Iterations 2
DICPCG:  Solving for p_rgh, Initial residual = 3.03698e-11, Final residual = 2.40323e-13, No Iterations 10
time step continuity errors : sum local = 8.63842e-13, global = 9.3703e-17, cumulative = 5.34049e-15
DILUPBiCG:  Solving for epsilon, Initial residual = 1.35308e-11, Final residual = 4.02068e-14, No Iterations 2
DILUPBiCG:  Solving for k, Initial residual = 2.73678e-11, Final residual = 6.04147e-14, No Iterations 2
DICPCG:  Solving for G, Initial residual = 5.84231e-12, Final residual = 2.49806e-13, No Iterations 11
Before T+T solve
BiCG:  Solving for T+T, Initial residual = 3.65942e-12, Final residual = 1.05628e-13, No Iterations 4
Tres = -1.30309e-09
TsRes = -8.32373e-11
ExecutionTime = 2.4 s



Wall heat fluxes [W]
movingWall -0.0860106 4.1839e-16 0.0860106 6.81641e-12
left 0.66378 2.49739e-15 1.50101 2.16479
right -0.376121 1.63132e-19 -1.78867 -2.16479
bottom -0.201649 0 0.201649 4.93713e-12
frontAndBack 0 0 0 0
sum -1.30069e-09 2.91595e-15 -3.1003e-13 -1.301e-09


Wall heat fluxes [W]
topAndBottom 0 0 0 0
left 2.16479 0 0 2.16479
right -2.16479 0 0 -2.16479
frontAndBack 0 0 0 0
sum 7.14844e-10 0 0 7.14844e-10

Time = 995

DILUPBiCG:  Solving for Ux, Initial residual = 1.40704e-11, Final residual = 2.98086e-15, No Iterations 2
DILUPBiCG:  Solving for Uy, Initial residual = 1.88501e-11, Final residual = 9.902e-15, No Iterations 2
DICPCG:  Solving for p_rgh, Initial residual = 2.93917e-11, Final residual = 1.91548e-13, No Iterations 5
time step continuity errors : sum local = 9.36755e-13, global = -1.85288e-16, cumulative = 5.1552e-15
DILUPBiCG:  Solving for epsilon, Initial residual = 1.32208e-11, Final residual = 3.96324e-14, No Iterations 2
DILUPBiCG:  Solving for k, Initial residual = 2.68138e-11, Final residual = 5.90989e-14, No Iterations 2
DICPCG:  Solving for G, Initial residual = 5.192e-12, Final residual = 2.44785e-13, No Iterations 11
Before T+T solve
BiCG:  Solving for T+T, Initial residual = 3.48645e-12, Final residual = 3.40722e-13, No Iterations 1
Tres = -1.27419e-09
TsRes = -9.76403e-11
ExecutionTime = 2.4 s



Wall heat fluxes [W]
movingWall -0.0860106 9.37967e-17 0.0860106 7.44486e-12
left 0.66378 -5.13353e-15 1.50101 2.16479
right -0.376121 -8.77212e-16 -1.78867 -2.16479
bottom -0.201649 0 0.201649 5.84993e-12
frontAndBack 0 0 0 0
sum -1.27416e-09 -5.91694e-15 1.79301e-13 -1.27399e-09


Wall heat fluxes [W]
topAndBottom 0 0 0 0
left 2.16479 0 0 2.16479
right -2.16479 0 0 -2.16479
frontAndBack 0 0 0 0
sum -8.92175e-11 0 0 -8.92175e-11

Time = 996

DILUPBiCG:  Solving for Ux, Initial residual = 1.29594e-11, Final residual = 2.88752e-15, No Iterations 2
DILUPBiCG:  Solving for Uy, Initial residual = 1.77415e-11, Final residual = 1.17799e-13, No Iterations 2
DICPCG:  Solving for p_rgh, Initial residual = 2.85432e-11, Final residual = 2.38994e-13, No Iterations 5
time step continuity errors : sum local = 1.28919e-12, global = 1.21232e-16, cumulative = 5.27644e-15
DILUPBiCG:  Solving for epsilon, Initial residual = 1.2971e-11, Final residual = 3.97487e-14, No Iterations 2
DILUPBiCG:  Solving for k, Initial residual = 2.63327e-11, Final residual = 5.73304e-14, No Iterations 2
DICPCG:  Solving for G, Initial residual = 6.72756e-12, Final residual = 5.66099e-13, No Iterations 12
Before T+T solve
BiCG:  Solving for T+T, Initial residual = 3.35116e-12, Final residual = 3.29744e-13, No Iterations 2
Tres = -1.24906e-09
TsRes = -9.35441e-11
ExecutionTime = 2.41 s



Wall heat fluxes [W]
movingWall -0.0860106 9.39391e-17 0.0860106 8.31503e-12
left 0.66378 2.49739e-15 1.50101 2.16479
right -0.376121 3.51151e-15 -1.78867 -2.16479
bottom -0.201649 0 0.201649 6.87045e-12
frontAndBack 0 0 0 0
sum -1.2481e-09 6.10284e-15 -3.20882e-13 -1.24842e-09


Wall heat fluxes [W]
topAndBottom 0 0 0 0
left 2.16479 0 0 2.16479
right -2.16479 0 0 -2.16479
frontAndBack 0 0 0 0
sum 2.25934e-10 0 0 2.25934e-10

Time = 997

DILUPBiCG:  Solving for Ux, Initial residual = 1.39817e-11, Final residual = 2.81723e-15, No Iterations 2
DILUPBiCG:  Solving for Uy, Initial residual = 1.61885e-11, Final residual = 7.67549e-15, No Iterations 2
DICPCG:  Solving for p_rgh, Initial residual = 2.85138e-11, Final residual = 2.26849e-13, No Iterations 10
time step continuity errors : sum local = 8.1684e-13, global = 7.6233e-17, cumulative = 5.35267e-15
DILUPBiCG:  Solving for epsilon, Initial residual = 1.26926e-11, Final residual = 3.77338e-14, No Iterations 2
DILUPBiCG:  Solving for k, Initial residual = 2.56735e-11, Final residual = 5.66774e-14, No Iterations 2
DICPCG:  Solving for G, Initial residual = 5.4903e-12, Final residual = 1.96332e-13, No Iterations 11
Before T+T solve
BiCG:  Solving for T+T, Initial residual = 3.432e-12, Final residual = 9.96409e-14, No Iterations 4
Tres = -1.22246e-09
TsRes = -7.84016e-11
ExecutionTime = 2.41 s



Wall heat fluxes [W]
movingWall -0.0860106 -5.99215e-16 0.0860106 6.55823e-12
left 0.66378 6.9372e-15 1.50101 2.16479
right -0.376121 -7.0244e-15 -1.78867 -2.16479
bottom -0.201649 0 0.201649 4.82853e-12
frontAndBack 0 0 0 0
sum -1.22021e-09 -6.86419e-16 2.67203e-13 -1.21994e-09


Wall heat fluxes [W]
topAndBottom 0 0 0 0
left 2.16479 0 0 2.16479
right -2.16479 0 0 -2.16479
frontAndBack 0 0 0 0
sum 6.70211e-10 0 0 6.70211e-10

Time = 998

DILUPBiCG:  Solving for Ux, Initial residual = 1.31984e-11, Final residual = 2.79642e-15, No Iterations 2
DILUPBiCG:  Solving for Uy, Initial residual = 1.75054e-11, Final residual = 1.09174e-14, No Iterations 2
DICPCG:  Solving for p_rgh, Initial residual = 2.75294e-11, Final residual = 1.79754e-13, No Iterations 5
time step continuity errors : sum local = 8.7989e-13, global = -2.017e-16, cumulative = 5.15097e-15
DILUPBiCG:  Solving for epsilon, Initial residual = 1.24026e-11, Final residual = 3.7153e-14, No Iterations 2
DILUPBiCG:  Solving for k, Initial residual = 2.51525e-11, Final residual = 5.5435e-14, No Iterations 2
DICPCG:  Solving for G, Initial residual = 4.92192e-12, Final residual = 1.87015e-13, No Iterations 11
Before T+T solve
BiCG:  Solving for T+T, Initial residual = 3.27029e-12, Final residual = 3.1959e-13, No Iterations 1
Tres = -1.195e-09
TsRes = -9.15364e-11
ExecutionTime = 2.41 s



Wall heat fluxes [W]
movingWall -0.0860106 1.39082e-15 0.0860106 6.80717e-12
left 0.66378 -4.7173e-15 1.50101 2.16479
right -0.376121 -2.63348e-15 -1.78867 -2.16479
bottom -0.201649 0 0.201649 5.27459e-12
frontAndBack 0 0 0 0
sum -1.19498e-09 -5.95996e-15 -7.64444e-13 -1.19575e-09


Wall heat fluxes [W]
topAndBottom 0 0 0 0
left 2.16479 0 0 2.16479
right -2.16479 0 0 -2.16479
frontAndBack 0 0 0 0
sum -8.38507e-11 0 0 -8.38507e-11

Time = 999

DILUPBiCG:  Solving for Ux, Initial residual = 1.21561e-11, Final residual = 2.70909e-15, No Iterations 2
DILUPBiCG:  Solving for Uy, Initial residual = 1.68342e-11, Final residual = 3.38951e-14, No Iterations 2
DICPCG:  Solving for p_rgh, Initial residual = 2.68119e-11, Final residual = 2.24433e-13, No Iterations 5
time step continuity errors : sum local = 1.21277e-12, global = -2.74756e-16, cumulative = 4.87621e-15
DILUPBiCG:  Solving for epsilon, Initial residual = 1.21668e-11, Final residual = 3.72938e-14, No Iterations 2
DILUPBiCG:  Solving for k, Initial residual = 2.47012e-11, Final residual = 5.37721e-14, No Iterations 2
DICPCG:  Solving for G, Initial residual = 6.46034e-12, Final residual = 5.15571e-13, No Iterations 12
Before T+T solve
BiCG:  Solving for T+T, Initial residual = 3.1445e-12, Final residual = 3.10342e-13, No Iterations 2
Tres = -1.17189e-09
TsRes = -8.78804e-11
ExecutionTime = 2.41 s



Wall heat fluxes [W]
movingWall -0.0860106 4.6518e-16 0.0860106 8.0267e-12
left 0.66378 -7.76966e-15 1.50101 2.16479
right -0.376121 -3.95204e-15 -1.78867 -2.16479
bottom -0.201649 0 0.201649 6.71183e-12
frontAndBack 0 0 0 0
sum -1.17098e-09 -1.12565e-14 6.44373e-13 -1.17034e-09


Wall heat fluxes [W]
topAndBottom 0 0 0 0
left 2.16479 0 0 2.16479
right -2.16479 0 0 -2.16479
frontAndBack 0 0 0 0
sum 2.12883e-10 0 0 2.12883e-10

Time = 1000

DILUPBiCG:  Solving for Ux, Initial residual = 1.31153e-11, Final residual = 2.64209e-15, No Iterations 2
DILUPBiCG:  Solving for Uy, Initial residual = 1.49422e-11, Final residual = 6.16797e-15, No Iterations 2
DICPCG:  Solving for p_rgh, Initial residual = 2.66966e-11, Final residual = 2.10454e-13, No Iterations 10
time step continuity errors : sum local = 7.57003e-13, global = 1.03232e-16, cumulative = 4.97945e-15
DILUPBiCG:  Solving for epsilon, Initial residual = 1.19067e-11, Final residual = 3.53703e-14, No Iterations 2
DILUPBiCG:  Solving for k, Initial residual = 2.40812e-11, Final residual = 5.31623e-14, No Iterations 2
DICPCG:  Solving for G, Initial residual = 5.48571e-12, Final residual = 2.07416e-13, No Iterations 11
Before T+T solve
BiCG:  Solving for T+T, Initial residual = 3.21908e-12, Final residual = 9.36622e-14, No Iterations 4
Tres = -1.14668e-09
TsRes = -7.37343e-11
ExecutionTime = 2.42 s



Wall heat fluxes [W]
movingWall -0.0860106 3.1421e-15 0.0860106 6.04271e-12
left 0.66378 2.77488e-16 1.50101 2.16479
right -0.376121 -4.38852e-16 -1.78867 -2.16479
bottom -0.201649 0 0.201649 4.38238e-12
frontAndBack 0 0 0 0
sum -1.14457e-09 2.98074e-15 1.88904e-13 -1.14438e-09


Wall heat fluxes [W]
topAndBottom 0 0 0 0
left 2.16479 0 0 2.16479
right -2.16479 0 0 -2.16479
frontAndBack 0 0 0 0
sum 6.30421e-10 0 0 6.30421e-10

End

